*SPEF "IEEE 1481-2009"
*DESIGN "arbiter"
*DATE "2019-05-22 01:31:09.933797"
*VENDOR "AUC_STUDENTS"
*PROGRAM "Def2Spef_Converter"
*VERSION "0.0"
*DESIGN_FLOW "PROJECT2_FLOW"
*DIVIDER /
*DELIMITER :
*BUS_DELIMITER <>
*T_UNIT 1 PS
*C_UNIT 1 FF
*R_UNIT 1 KOHM
*L_UNIT 1 UH

*NAME_MAP

*1 NAND2X1_6
*2 FILL_3_0_2
*3 FILL_3_0_1
*4 FILL_3_0_0
*5 FILL_5_1_0
*6 FILL_5_1_1
*7 FILL_5_1_2
*8 AOI21X1_17
*9 INVX1_3
*10 INVX1_1
*11 AOI21X1_13
*12 FILL_4_2
*13 BUFX2_13
*14 BUFX2_12
*15 BUFX2_11
*16 BUFX2_10
*17 BUFX2_17
*18 INVX1_4
*19 OAI21X1_2
*20 BUFX2_14
*21 NAND2X1_12
*22 BUFX2_19
*23 AOI21X1_10
*24 NAND3X1_6
*25 FILL_1_1_0
*26 FILL_1_1_1
*27 FILL_1_1_2
*28 NAND2X1_10
*29 INVX2_3
*30 BUFX2_8
*31 FILL_4_1
*32 BUFX2_7
*33 DFFPOSX1_14
*34 NAND2X1_2
*35 DFFPOSX1_15
*36 DFFPOSX1_8
*37 NAND3X1_10
*38 BUFX2_20
*39 DFFPOSX1_4
*40 DFFPOSX1_5
*41 DFFPOSX1_6
*42 DFFPOSX1_7
*43 DFFPOSX1_1
*44 DFFPOSX1_2
*45 BUFX2_2
*46 FILL_3_1_2
*47 FILL_3_1_0
*48 FILL_3_1_1
*49 DFFPOSX1_10
*50 BUFX2_3
*51 INVX1_7
*52 FILL_2_1_2
*53 INVX1_2
*54 AOI21X1_16
*55 AOI21X1_15
*56 AOI21X1_14
*57 INVX1_6
*58 AOI21X1_12
*59 AOI21X1_11
*60 INVX1_5
*61 INVX1_8
*62 INVX1_9
*63 AOI21X1_19
*64 AOI21X1_18
*65 NAND3X1_2
*66 FILL_1_0_1
*67 FILL_1_0_0
*68 FILL_1_0_2
*69 NAND2X1_8
*70 NAND2X1_9
*71 OAI21X1_28
*72 OAI21X1_29
*73 NAND2X1_4
*74 NAND2X1_5
*75 OAI21X1_24
*76 NAND2X1_7
*77 OAI21X1_22
*78 OAI21X1_23
*79 OAI21X1_20
*80 NAND2X1_3
*81 AOI21X1_7
*82 AOI21X1_6
*83 AOI21X1_5
*84 AOI21X1_4
*85 AOI21X1_3
*86 AOI21X1_2
*87 AOI21X1_1
*88 AOI21X1_9
*89 AOI21X1_8
*90 FILL_2_0_2
*91 FILL_4_1_1
*92 FILL_2_0_0
*93 FILL_2_0_1
*94 FILL_2_1
*95 FILL_4_1_0
*96 FILL_4_1_2
*97 OAI21X1_26
*98 FILL_1_1
*99 OAI21X1_27
*100 NAND3X1_11
*101 NAND3X1_7
*102 DFFPOSX1_9
*103 OAI21X1_25
*104 INVX1_10
*105 INVX1_11
*106 INVX1_12
*107 INVX1_13
*108 NAND3X1_1
*109 AND2X2_1
*110 NAND2X1_1
*111 NOR2X1_1
*112 NOR2X1_3
*113 NOR2X1_2
*114 NOR2X1_5
*115 NOR2X1_4
*116 NOR2X1_7
*117 NOR2X1_6
*118 NOR2X1_9
*119 NOR2X1_8
*120 OAI21X1_21
*121 FILL_5_2
*122 BUFX2_16
*123 FILL_5_1
*124 OAI21X1_7
*125 OAI21X1_6
*126 OAI21X1_5
*127 OAI21X1_4
*128 OAI21X1_3
*129 NAND2X1_13
*130 OAI21X1_1
*131 NAND2X1_11
*132 OAI21X1_9
*133 OAI21X1_8
*134 AOI22X1_6
*135 DFFPOSX1_3
*136 FILL_4_0_0
*137 FILL_4_0_1
*138 FILL_4_0_2
*139 NOR2X1_11
*140 INVX2_4
*141 BUFX2_9
*142 OAI21X1_16
*143 DFFPOSX1_16
*144 BUFX2_6
*145 BUFX2_5
*146 BUFX2_4
*147 DFFPOSX1_12
*148 DFFPOSX1_13
*149 BUFX2_1
*150 DFFPOSX1_11
*151 FILL_0_1_1
*152 FILL_0_1_0
*153 FILL_2_1_1
*154 FILL_0_1_2
*155 FILL_5_0_1
*156 FILL_5_0_0
*157 FILL_5_0_2
*158 OAI21X1_17
*159 NOR2X1_10
*160 OAI21X1_15
*161 OAI21X1_14
*162 OAI21X1_13
*163 OAI21X1_12
*164 OAI21X1_11
*165 OAI21X1_10
*166 AOI22X1_12
*167 AOI22X1_13
*168 AOI22X1_10
*169 AOI22X1_11
*170 OAI21X1_19
*171 OAI21X1_18
*172 BUFX2_15
*173 FILL_2_1_0
*174 NAND3X1_9
*175 NAND3X1_8
*176 INVX2_5
*177 NAND3X1_4
*178 INVX2_7
*179 INVX2_6
*180 INVX2_1
*181 AOI21X1_24
*182 NAND3X1_3
*183 INVX2_2
*184 AOI22X1_8
*185 AOI22X1_9
*186 AOI22X1_1
*187 AOI22X1_2
*188 AOI22X1_3
*189 AOI22X1_4
*190 AOI22X1_5
*191 INVX4_1
*192 AOI22X1_7
*193 BUFX2_18
*194 NAND3X1_5
*195 FILL_0_0_0
*196 FILL_0_0_1
*197 FILL_0_0_2
*198 AOI21X1_25
*199 AOI21X1_22
*200 AOI21X1_23
*201 AOI21X1_20
*202 AOI21X1_21
*203 _0__1_
*204 _10_
*205 token_1_
*206 _82_
*207 grant<2>
*208 _79_
*209 _1__3_
*210 _94_
*211 _1_<1>
*212 _100_
*213 _41_
*214 _34_
*215 _1_<2>
*216 _26_
*217 _18_
*218 _110_<2>
*219 _8_
*220 _109_
*221 _71_
*222 _55_
*223 _110__5_
*224 _66_
*225 _42_
*226 _17_
*227 _93_
*228 _78_
*229 token_0_
*230 _83_
*231 _1__2_
*232 _112__0_
*233 _107_
*234 _6_
*235 _37_
*236 _9_
*237 _70_
*238 request<5>
*239 select<1>
*240 _27_
*241 _108_
*242 _67_
*243 _54_
*244 _77_
*245 _28_
*246 _80_
*247 _1__1_
*248 _110__3_
*249 _102_
*250 _1__4_
*251 _96_
*252 _3_
*253 grant<4>
*254 _1_<0>
*255 _88_
*256 _60_
*257 _112__5_
*258 _20_
*259 _49_
*260 _68_
*261 _32_
*262 _57_
*263 _12_
*264 _110_<0>
*265 request<4>
*266 _47_
*267 _81_
*268 _76_
*269 _11_
*270 _0__0_
*271 _29_
*272 _112__1_
*273 _95_
*274 _48_
*275 _1__0_
*276 active
*277 _89_
*278 _0_
*279 _101_
*280 _35_
*281 _46_
*282 clk
*283 _19_
*284 _21_
*285 _56_
*286 _69_
*287 _61_
*288 request<3>
*289 _40_
*290 _110_<1>
*291 _51_
*292 _62_
*293 token_5_
*294 _110__1_
*295 _14_
*296 _38_
*297 _90_
*298 _86_
*299 _59_
*300 _64_
*301 _113__2_
*302 _105_
*303 _99_
*304 _22_
*305 _4_
*306 _45_
*307 _112__2_
*308 _30_
*309 _44_
*310 _75_
*311 request<2>
*312 grant<5>
*313 grant<3>
*314 _50_
*315 _74_
*316 _97_
*317 _110__2_
*318 _63_
*319 _2_
*320 _87_
*321 _103_
*322 rst
*323 token_4_
*324 _58_
*325 _23_
*326 _104_
*327 _5_
*328 request<1>
*329 _98_
*330 _1_<3>
*331 _1_<5>
*332 _33_
*333 select<0>
*334 _112__3_
*335 _0__2_
*336 _13_
*337 token_3_
*338 _92_
*339 _43_
*340 _1__5_
*341 _84_
*342 grant<0>
*343 _16_
*344 _113__0_
*345 _112__4_
*346 request<0>
*347 _113__1_
*348 _36_
*349 _24_
*350 _53_
*351 _73_
*352 _39_
*353 token_2_
*354 _52_
*355 _65_
*356 _15_
*357 grant<1>
*358 _91_
*359 _111_
*360 _85_
*361 _110__4_
*362 _7_
*363 _106_
*364 order_0_
*365 _31_
*366 _25_
*367 _110__0_
*368 _1_<4>
*369 select<2>
*370 _72_

*PORTS
*1 I
*2 I


*END

*D_NET *224 210.397525

*CONN
*I *177:A I *L 15.8812
*I *184:Y O *D AOI22X1
*I *109:A I *L 12.9068
*N *224:4 *C
*N *224:5 *C
*N *224:6 *C
*N *224:7 *C
*N *224:8 *C

*CAP
1 *177:A 15.8812
2 *184:Y 0.0
3 *109:A 12.9068
4 *224:4 14.63771
5 *224:5 18.29371
6 *224:6 22.86371
7 *224:7 14.63771
8 *224:8 111.176685

*RES
1 *224:4 *224:5 42.7066666667
2 *224:4 *109:A 21.3733333333
3 *224:4 *177:A 149.373333333
4 *184:Y *224:6 661.373333333
5 *224:6 *224:4 42.7066666667

*END

*D_NET *242 102.56597

*CONN
*I *177:B I *L 15.9247
*I *185:Y O *D AOI22X1
*I *109:B I *L 12.5119
*N *242:4 *C
*N *242:5 *C

*CAP
1 *177:B 15.9247
2 *185:Y 0.0
3 *109:B 12.5119
4 *242:4 27.800685
5 *242:5 46.328685

*RES

*END

*D_NET *212 273.03031

*CONN
*I *37:C I *L 16.4926
*I *175:C I *L 16.4926
*I *24:C I *L 16.4926
*I *65:C I *L 16.4926
*I *109:Y O *D AND2X2
*N *212:6 *C
*N *212:7 *C
*N *212:8 *C
*N *212:9 *C

*CAP
1 *37:C 16.4926
2 *175:C 16.4926
3 *24:C 16.4926
4 *65:C 16.4926
5 *109:Y 0.0
6 *212:6 27.800685
7 *212:7 37.064685
8 *212:8 37.064685
9 *212:9 105.129855

*RES

*END

*D_NET *355 1370.235085

*CONN
*I *75:A I *L 17.346
*I *108:Y O *D NAND3X1
*I *176:A I *L 18.6567
*I *198:A I *L 17.3593
*I *202:A I *L 17.3593
*I *88:A I *L 17.3593
*I *83:A I *L 17.3593
*I *87:A I *L 17.3593
*N *355:9 *C
*N *355:10 *C
*N *355:11 *C
*N *355:12 *C
*N *355:13 *C
*N *355:14 *C
*N *355:15 *C
*N *355:16 *C
*N *355:17 *C
*N *355:18 *C
*N *355:19 *C
*N *355:20 *C
*N *355:21 *C
*N *355:22 *C
*N *355:23 *C
*N *355:24 *C
*N *355:25 *C
*N *355:26 *C

*CAP
1 *75:A 17.346
2 *108:Y 0.0
3 *176:A 18.6567
4 *198:A 17.3593
5 *202:A 17.3593
6 *88:A 17.3593
7 *83:A 17.3593
8 *87:A 17.3593
9 *355:9 14.63771
10 *355:10 64.856685
11 *355:11 55.592685
12 *355:12 74.120685
13 *355:13 11.588685
14 *355:14 342.776685
15 *355:15 148.232685
16 *355:16 46.328685
17 *355:17 55.592685
18 *355:18 13.149855
19 *355:19 26.289855
20 *355:20 91.989855
21 *355:21 91.989855
22 *355:22 26.289855
23 *355:23 26.289855
24 *355:24 39.429855
25 *355:25 52.569855
26 *355:26 65.709855

*RES
1 *355:6 *88:A 21.3733333333
2 *88:A *87:A 298.706666667
3 *87:A *75:A 170.706666667
4 *355:12 *88:A 21.3733333333
5 *108:Y *355:4 192.04
6 *355:12 *355:12 373.373333333
7 *355:18 *355:14 341.373333333
8 *355:18 *83:A 149.373333333
9 *355:18 *355:12 1578.70666667
10 *355:21 *355:12 106.706666667
11 *355:21 *355:12 682.706666667
12 *355:21 *355:18 106.706666667
13 *176:A *355:19 21.3733333333
14 *355:19 *355:19 186.701666667
15 *198:A *202:A 85.3733333333
16 *202:A *355:19 149.373333333
17 *355:19 *355:21 266.706666667

*END

*D_NET *353 1919.416545

*CONN
*I *131:A I *L 12.5
*I *110:B I *L 12.9035
*I *140:A I *L 18.6567
*I *49:Q O *D DFFPOSX1
*I *167:B I *L 17.9972
*I *185:A I *L 17.3718
*I *134:C I *L 18.2378
*I *189:B I *L 17.9972
*I *87:B I *L 17.9733
*N *353:10 *C
*N *353:11 *C
*N *353:12 *C
*N *353:13 *C
*N *353:14 *C
*N *353:15 *C
*N *353:16 *C
*N *353:17 *C
*N *353:18 *C
*N *353:19 *C
*N *353:20 *C
*N *353:21 *C
*N *353:22 *C
*N *353:23 *C
*N *353:24 *C
*N *353:25 *C
*N *353:26 *C
*N *353:27 *C
*N *353:28 *C
*N *353:29 *C
*N *353:30 *C

*CAP
1 *131:A 12.5
2 *110:B 12.9035
3 *140:A 18.6567
4 *49:Q 0.0
5 *167:B 17.9972
6 *185:A 17.3718
7 *134:C 18.2378
8 *189:B 17.9972
9 *87:B 17.9733
10 *353:10 208.32651
11 *353:11 217.00651
12 *353:12 156.24651
13 *353:13 154.51051
14 *353:14 9.272685
15 *353:15 46.328685
16 *353:16 18.536685
17 *353:17 194.552685
18 *353:18 74.120685
19 *353:19 129.704685
20 *353:20 83.384685
21 *353:21 166.760685
22 *353:22 11.588685
23 *353:23 39.429855
24 *353:24 26.289855
25 *353:25 52.569855
26 *353:26 39.429855
27 *353:27 39.429855
28 *353:28 78.849855
29 *353:29 26.289855
30 *353:30 13.149855

*RES
1 *189:B *353:21 106.706666667
2 *353:19 *353:21 1280.04
3 *353:19 *353:12 213.373333333
4 *353:12 *87:B 64.04
5 *353:13 *110:B 106.706666667
6 *110:B *189:B 128.04
7 *353:14 *167:B 64.04
8 *167:B *353:15 832.04
9 *353:19 *134:C 21.3733333333
10 *134:C *167:B 384.04
11 *353:17 *185:A 192.04
12 *185:A *353:15 405.373333333
13 *353:17 *353:19 320.04
14 *353:17 *140:A 18.7016666667
15 *140:A *185:A 554.706666667
16 *131:A *353:21 746.706666667
17 *353:21 *140:A 21.3733333333
18 *49:Q *353:21 21.3733333333
19 *353:21 *49:Q 21.3733333333
20 *49:Q *353:21 18.7016666667
21 *49:Q *353:24 21.3733333333

*END

*D_NET *268 1405.409475

*CONN
*I *194:Y O *D NAND3X1
*I *179:A I *L 18.6567
*I *198:C I *L 15.0799
*I *202:C I *L 15.0799
*I *58:A I *L 17.3593
*I *88:C I *L 15.0799
*I *83:C I *L 15.0799
*I *87:C I *L 15.0799
*N *268:9 *C
*N *268:10 *C
*N *268:11 *C
*N *268:12 *C
*N *268:13 *C
*N *268:14 *C
*N *268:15 *C
*N *268:16 *C
*N *268:17 *C
*N *268:18 *C
*N *268:19 *C
*N *268:20 *C
*N *268:21 *C
*N *268:22 *C
*N *268:23 *C

*CAP
1 *194:Y 0.0
2 *179:A 18.6567
3 *198:C 15.0799
4 *202:C 15.0799
5 *58:A 17.3593
6 *88:C 15.0799
7 *83:C 15.0799
8 *87:C 15.0799
9 *268:9 64.856685
10 *268:10 166.760685
11 *268:11 120.440685
12 *268:12 166.760685
13 *268:13 157.496685
14 *268:14 170.829855
15 *268:15 39.429855
16 *268:16 26.289855
17 *268:17 52.569855
18 *268:18 65.709855
19 *268:19 52.569855
20 *268:20 91.989855
21 *268:21 13.149855
22 *268:22 52.569855
23 *268:23 52.569855

*RES
1 *58:A *268:9 21.3733333333
2 *268:15 *88:C 149.373333333
3 *88:C *268:9 149.373333333
4 *179:A *268:11 21.3733333333
5 *268:11 *87:C 917.373333333
6 *268:11 *268:13 266.706666667
7 *268:13 *268:13 554.706666667
8 *268:13 *268:15 213.373333333
9 *268:19 *268:15 373.373333333
10 *268:19 *194:Y 874.706666667
11 *198:C *268:18 149.373333333
12 *268:18 *83:C 746.706666667
13 *83:C *268:19 18.7016666667
14 *268:20 *202:C 21.3733333333

*END

*D_NET *244 27.55151

*CONN
*I *75:C I *L 12.9138
*I *87:Y O *D AOI21X1
*N *244:3 *C

*CAP
1 *75:C 12.9138
2 *87:Y 0.0
3 *244:3 14.63771

*RES

*END

*D_NET *234 109.349155

*CONN
*I *174:Y O *D NAND3X1
*I *86:A I *L 17.3593
*N *234:3 *C

*CAP
1 *174:Y 0.0
2 *86:A 17.3593
3 *234:3 91.989855

*RES
1 *174:Y *86:A 85.3733333333

*END

*D_NET *362 152.41584

*CONN
*I *198:Y O *D AOI21X1
*I *86:B I *L 17.9733
*N *362:3 *C
*N *362:4 *C

*CAP
1 *198:Y 0.0
2 *86:B 17.9733
3 *362:3 55.592685
4 *362:4 78.849855

*RES
1 *198:Y *86:B 256.04
2 *86:B *362:3 106.706666667

*END

*D_NET *219 135.520585

*CONN
*I *124:Y O *D OAI21X1
*I *86:C I *L 15.0799
*N *219:3 *C

*CAP
1 *124:Y 0.0
2 *86:C 15.0799
3 *219:3 120.440685

*RES
1 *124:Y *86:C 682.706666667

*END

*D_NET *236 179.389535

*CONN
*I *132:B I *L 18.2038
*I *86:Y O *D AOI21X1
*N *236:3 *C
*N *236:4 *C
*N *236:5 *C
*N *236:6 *C

*CAP
1 *132:B 18.2038
2 *86:Y 0.0
3 *236:3 60.76651
4 *236:4 9.272685
5 *236:5 64.856685
6 *236:6 26.289855

*RES
1 *132:B *236:3 106.706666667
2 *236:3 *236:3 42.7066666667
3 *236:3 *236:5 373.373333333
4 *236:5 *86:Y 277.373333333

*END

*D_NET *241 789.429495

*CONN
*I *178:Y O *D INVX2
*I *200:A I *L 17.3593
*I *54:A I *L 17.3593
*I *55:C I *L 15.0799
*I *59:A I *L 17.3593
*I *81:A I *L 17.3593
*I *85:A I *L 17.3593
*N *241:8 *C
*N *241:9 *C
*N *241:10 *C
*N *241:11 *C
*N *241:12 *C
*N *241:13 *C
*N *241:14 *C
*N *241:15 *C
*N *241:16 *C
*N *241:17 *C
*N *241:18 *C
*N *241:19 *C
*N *241:20 *C

*CAP
1 *178:Y 0.0
2 *200:A 17.3593
3 *54:A 17.3593
4 *55:C 15.0799
5 *59:A 17.3593
6 *81:A 17.3593
7 *85:A 17.3593
8 *241:8 37.064685
9 *241:9 46.328685
10 *241:10 64.856685
11 *241:11 120.440685
12 *241:12 111.176685
13 *241:13 18.536685
14 *241:14 39.429855
15 *241:15 39.429855
16 *241:16 39.429855
17 *241:17 39.429855
18 *241:18 39.429855
19 *241:19 13.149855
20 *241:20 78.849855

*RES
1 *241:8 *200:A 21.3733333333
2 *200:A *85:A 170.706666667
3 *85:A *241:9 21.3733333333
4 *241:10 *59:A 149.373333333
5 *59:A *200:A 341.373333333
6 *241:11 *81:A 21.3733333333
7 *81:A *85:A 298.706666667
8 *178:Y *241:12 64.04
9 *241:12 *59:A 405.373333333
10 *241:12 *241:14 53.3733333333
11 *241:14 *241:12 512.04
12 *54:A *55:C 85.3733333333
13 *55:C *241:14 149.373333333

*END

*D_NET *237 1026.249105

*CONN
*I *164:A I *L 17.346
*I *24:A I *L 15.8812
*I *69:A I *L 12.5
*I *29:Y O *D INVX2
*I *85:B I *L 17.9733
*N *237:6 *C
*N *237:7 *C
*N *237:8 *C
*N *237:9 *C
*N *237:10 *C
*N *237:11 *C
*N *237:12 *C
*N *237:13 *C
*N *237:14 *C
*N *237:15 *C
*N *237:16 *C

*CAP
1 *164:A 17.346
2 *24:A 15.8812
3 *69:A 12.5
4 *29:Y 0.0
5 *85:B 17.9733
6 *237:6 29.26171
7 *237:7 14.63771
8 *237:8 64.856685
9 *237:9 222.344685
10 *237:10 92.648685
11 *237:11 39.429855
12 *237:12 39.429855
13 *237:13 78.849855
14 *237:14 52.569855
15 *237:15 105.129855
16 *237:16 223.389855

*RES
1 *164:A *237:11 21.3733333333
2 *237:11 *237:7 298.706666667
3 *237:7 *85:B 21.3733333333
4 *85:B *237:8 64.04
5 *237:9 *69:A 106.706666667
6 *69:A *237:8 1130.70666667
7 *237:9 *237:11 213.373333333
8 *24:A *237:12 192.04
9 *237:12 *237:12 426.706666667
10 *237:12 *237:14 906.706666667

*END

*D_NET *364 1858.944845

*CONN
*I *129:B I *L 12.9035
*I *131:B I *L 12.9035
*I *70:B I *L 12.9035
*I *76:Y O *D NAND2X1
*I *80:B I *L 12.9035
*I *107:A I *L 9.32456
*I *33:D I *L 8.82947
*I *200:C I *L 15.0799
*I *201:A I *L 17.3593
*I *54:C I *L 15.0799
*I *59:C I *L 15.0799
*I *81:C I *L 15.0799
*I *85:C I *L 15.0799
*N *364:14 *C
*N *364:15 *C
*N *364:16 *C
*N *364:17 *C
*N *364:18 *C
*N *364:19 *C
*N *364:20 *C
*N *364:21 *C
*N *364:22 *C
*N *364:23 *C
*N *364:24 *C
*N *364:25 *C
*N *364:26 *C
*N *364:27 *C
*N *364:28 *C
*N *364:29 *C
*N *364:30 *C
*N *364:31 *C
*N *364:32 *C
*N *364:33 *C
*N *364:34 *C
*N *364:35 *C
*N *364:36 *C
*N *364:37 *C

*CAP
1 *129:B 12.9035
2 *131:B 12.9035
3 *70:B 12.9035
4 *76:Y 0.0
5 *80:B 12.9035
6 *107:A 9.32456
7 *33:D 8.82947
8 *200:C 15.0799
9 *201:A 17.3593
10 *54:C 15.0799
11 *59:C 15.0799
12 *81:C 15.0799
13 *85:C 15.0799
14 *364:14 43.40651
15 *364:15 14.63771
16 *364:16 4.58371
17 *364:17 37.064685
18 *364:18 64.856685
19 *364:19 101.912685
20 *364:20 101.912685
21 *364:21 55.592685
22 *364:22 157.496685
23 *364:23 92.648685
24 *364:24 101.912685
25 *364:25 9.272685
26 *364:26 213.080685
27 *364:27 27.800685
28 *364:28 39.429855
29 *364:29 105.129855
30 *364:30 157.689855
31 *364:31 39.429855
32 *364:32 118.269855
33 *364:33 13.149855
34 *364:34 13.149855
35 *364:35 78.849855
36 *364:36 13.149855
37 *364:37 91.989855

*RES
1 *200:C *81:C 469.373333333
2 *59:C *200:C 341.373333333
3 *364:14 *129:B 106.706666667
4 *129:B *81:C 512.04
5 *364:14 *364:14 426.706666667
6 *364:14 *131:B 106.706666667
7 *364:14 *364:17 13.3733333333
8 *70:B *85:C 554.706666667
9 *364:18 *80:B 106.706666667
10 *80:B *364:19 362.706666667
11 *364:19 *59:C 21.3733333333
12 *54:C *364:19 746.706666667
13 *364:19 *364:21 233.368333333
14 *364:21 *59:C 405.373333333
15 *107:A *364:22 64.04
16 *364:22 *364:23 469.373333333
17 *364:23 *54:C 21.3733333333
18 *364:23 *201:A 21.3733333333
19 *201:A *364:22 56.035
20 *364:25 *33:D 362.706666667
21 *33:D *364:26 1344.04
22 *76:Y *364:25 64.04

*END

*D_NET *269 110.310195

*CONN
*I *132:C I *L 12.9138
*I *85:Y O *D AOI21X1
*N *269:3 *C
*N *269:4 *C
*N *269:5 *C

*CAP
1 *132:C 12.9138
2 *85:Y 0.0
3 *269:3 18.536685
4 *269:4 13.149855
5 *269:5 65.709855

*RES
1 *269:25 *269:4 53.3733333333
2 *269:4 *85:Y 234.706666667
3 *85:Y *132:C 213.373333333

*END

*D_NET *263 421.83889

*CONN
*I *132:Y O *D OAI21X1
*I *84:A I *L 17.3593
*N *263:3 *C
*N *263:4 *C
*N *263:5 *C
*N *263:6 *C
*N *263:7 *C

*CAP
1 *132:Y 0.0
2 *84:A 17.3593
3 *263:3 130.20651
4 *263:4 9.272685
5 *263:5 120.440685
6 *263:6 13.149855
7 *263:7 131.409855

*RES
1 *132:Y *263:3 21.3733333333
2 *263:3 *263:3 42.7066666667
3 *263:3 *263:5 800.04
4 *263:5 *263:6 554.706666667
5 *263:6 *84:A 21.3733333333

*END

*D_NET *252 514.694865

*CONN
*I *131:Y O *D NAND2X1
*I *84:B I *L 17.9733
*N *252:3 *C
*N *252:4 *C
*N *252:5 *C

*CAP
1 *131:Y 0.0
2 *84:B 17.9733
3 *252:3 144.549855
4 *252:4 10.521855
5 *252:5 341.649855

*RES
1 *252:5 *252:6 586.706666667
2 *252:5 *131:Y 64.04
3 *252:5 *84:B 106.706666667

*END

*D_NET *322 1587.438455

*CONN
*I *53:A I *L 9.32456
*I *181:C I *L 15.0799
*I *201:C I *L 15.0799
*I *11:C I *L 15.0799
*I *89:C I *L 15.0799
*I *84:C I *L 15.0799
*N *322:8 *C
*N *322:9 *C
*N *322:10 *C
*N *322:11 *C
*N *322:12 *C
*N *322:13 *C
*N *322:14 *C
*N *322:15 *C
*N *322:16 *C
*N *322:17 *C
*N *322:18 *C
*N *322:19 *C
*N *322:20 *C

*CAP
1 *53:A 9.32456
2 *181:C 15.0799
3 *201:C 15.0799
4 *11:C 15.0799
5 *89:C 15.0799
6 *84:C 15.0799
7 *322:7 27.800685
8 *322:8 9.272685
9 *322:9 305.720685
10 *322:10 55.592685
11 *322:11 222.344685
12 *322:12 27.800685
13 *322:13 328.509855
14 *322:14 197.109855
15 *322:15 118.204155
16 *322:16 65.709855
17 *322:17 26.289855
18 *322:18 26.289855
19 *322:19 91.989855

*RES
1 *322:8 *322:9 128.04
2 *322:9 *84:C 149.373333333
3 *181:C *322:8 149.373333333
4 *322 *322:10 480.04
5 *322:10 *89:C 1258.70666667
6 *89:C *181:C 42.7066666667
7 *322:11 *322:10 256.04
8 *322:12 *53:A 21.3733333333
9 *53:A *11:C 1024.04
10 *11:C *322:11 21.3733333333
11 *201:C *322:13 149.373333333
12 *322:13 *53:A 106.706666667

*END

*D_NET *231 514.18506

*CONN
*I *49:D I *L 8.82947
*I *84:Y O *D AOI21X1
*N *231:3 *C
*N *231:4 *C
*N *231:5 *C
*N *231:6 *C
*N *231:7 *C

*CAP
1 *49:D 8.82947
2 *84:Y 0.0
3 *231:3 295.12651
4 *231:4 11.588685
5 *231:5 27.800685
6 *231:6 13.149855
7 *231:7 157.689855

*RES
1 *231:13 *49:D 362.706666667
2 *49:D *231:13 362.706666667
3 *231:13 *231:4 1813.37333333
4 *231:4 *231:5 128.04
5 *231:5 *84:Y 106.706666667

*END

*D_NET *293 2000.58736

*CONN
*I *120:A I *L 17.346
*I *158:A I *L 17.346
*I *124:A I *L 17.346
*I *19:A I *L 17.346
*I *57:A I *L 9.32456
*I *148:Q O *D DFFPOSX1
*I *169:A I *L 17.3718
*I *168:C I *L 18.2378
*I *190:A I *L 17.3718
*I *188:A I *L 17.3718
*I *186:A I *L 17.3718
*I *83:B I *L 17.9733
*N *293:13 *C
*N *293:14 *C
*N *293:15 *C
*N *293:16 *C
*N *293:17 *C
*N *293:18 *C
*N *293:19 *C
*N *293:20 *C
*N *293:21 *C
*N *293:22 *C
*N *293:23 *C
*N *293:24 *C
*N *293:25 *C
*N *293:26 *C
*N *293:27 *C
*N *293:28 *C
*N *293:29 *C
*N *293:30 *C
*N *293:31 *C
*N *293:32 *C
*N *293:33 *C
*N *293:34 *C
*N *293:35 *C

*CAP
1 *120:A 17.346
2 *158:A 17.346
3 *124:A 17.346
4 *19:A 17.346
5 *57:A 9.32456
6 *148:Q 0.0
7 *169:A 17.3718
8 *168:C 18.2378
9 *190:A 17.3718
10 *188:A 17.3718
11 *186:A 17.3718
12 *83:B 17.9733
13 *293:13 156.24651
14 *293:14 29.26171
15 *293:15 14.63771
16 *293:16 129.704685
17 *293:17 64.856685
18 *293:18 231.608685
19 *293:19 27.800685
20 *293:20 9.272685
21 *293:21 9.272685
22 *293:22 46.328685
23 *293:23 37.064685
24 *293:24 129.704685
25 *293:25 91.989855
26 *293:26 118.269855
27 *293:27 118.269855
28 *293:28 39.429855
29 *293:29 39.429855
30 *293:30 144.549855
31 *293:31 10.521855
32 *293:32 236.529855
33 *293:33 13.149855
34 *293:34 105.129855
35 *293:35 13.149855

*RES
1 *124:A *83:B 170.706666667
2 *293:13 *83:B 490.706666667
3 *148:Q *293:5 490.706666667
4 *293:13 *158:A 277.373333333
5 *158:A *293:13 21.3733333333
6 *120:A *293:13 21.3733333333
7 *293:13 *293:16 1066.70666667
8 *19:A *293:17 149.373333333
9 *293:17 *293:17 128.04
10 *57:A *293:26 106.706666667
11 *293:26 *293:26 960.04
12 *293:26 *293:26 586.706666667
13 *293:26 *293:26 37.3683333333
14 *293:26 *293:24 960.04
15 *293:25 *293:26 42.7066666667
16 *293:27 *188:A 21.3733333333
17 *188:A *190:A 213.373333333
18 *293:28 *168:C 405.373333333
19 *168:C *186:A 373.368333333
20 *186:A *293:27 149.373333333
21 *169:A *293:28 618.706666667

*END

*D_NET *226 61.85901

*CONN
*I *82:B I *L 17.9733
*I *83:Y O *D AOI21X1
*N *226:3 *C

*CAP
1 *82:B 17.9733
2 *83:Y 0.0
3 *226:3 43.88571

*RES
1 *82:B *83:Y 170.706666667

*END

*D_NET *343 81.98155

*CONN
*I *100:Y O *D NAND3X1
*I *82:A I *L 17.3593
*N *343:3 *C
*N *343:4 *C
*N *343:5 *C
*N *343:6 *C

*CAP
1 *100:Y 0.0
2 *82:A 17.3593
3 *343:3 27.800685
4 *343:4 10.521855
5 *343:5 13.149855
6 *343:6 13.149855

*RES
1 *343:3 *343:4 42.7066666667
2 *343:3 *100:Y 149.373333333
3 *82:A *343:4 149.373333333
4 *343:3 *343:6 53.3733333333

*END

*D_NET *217 178.724005

*CONN
*I *165:Y O *D OAI21X1
*I *82:C I *L 15.0799
*N *217:3 *C
*N *217:4 *C
*N *217:5 *C
*N *217:6 *C
*N *217:7 *C

*CAP
1 *165:Y 0.0
2 *82:C 15.0799
3 *217:3 92.648685
4 *217:4 13.149855
5 *217:5 10.521855
6 *217:6 26.289855
7 *217:7 21.033855

*RES
1 *165:Y *217:5 533.373333333
2 *217:5 *217:5 53.3733333333
3 *217:5 *217:6 42.7066666667
4 *217:5 *82:C 64.04
5 *217:5 *217:7 85.3733333333

*END

*D_NET *283 377.84739

*CONN
*I *162:B I *L 18.2038
*I *82:Y O *D AOI21X1
*N *283:3 *C
*N *283:4 *C
*N *283:5 *C
*N *283:6 *C
*N *283:7 *C

*CAP
1 *162:B 18.2038
2 *82:Y 0.0
3 *283:3 95.48651
4 *283:4 55.592685
5 *283:5 129.704685
6 *283:6 26.289855
7 *283:7 52.569855

*RES
1 *162:B *283:3 64.04
2 *283:3 *283:3 256.04
3 *283:3 *283:5 586.706666667
4 *283:5 *283:6 597.373333333
5 *283:6 *82:Y 64.04

*END

*D_NET *208 1343.17381

*CONN
*I *103:B I *L 18.2038
*I *170:A I *L 17.346
*I *160:A I *L 17.346
*I *175:A I *L 15.8812
*I *28:A I *L 12.5
*I *140:Y O *D INVX2
*I *81:B I *L 17.9733
*N *208:8 *C
*N *208:9 *C
*N *208:10 *C
*N *208:11 *C
*N *208:12 *C
*N *208:13 *C
*N *208:14 *C
*N *208:15 *C
*N *208:16 *C
*N *208:17 *C
*N *208:18 *C
*N *208:19 *C
*N *208:20 *C
*N *208:21 *C
*N *208:22 *C

*CAP
1 *103:B 18.2038
2 *170:A 17.346
3 *160:A 17.346
4 *175:A 15.8812
5 *28:A 12.5
6 *140:Y 0.0
7 *81:B 17.9733
8 *208:8 234.36651
9 *208:9 29.26171
10 *208:10 14.63771
11 *208:11 296.456685
12 *208:12 27.800685
13 *208:13 27.800685
14 *208:14 166.760685
15 *208:15 26.289855
16 *208:16 26.289855
17 *208:17 13.149855
18 *208:18 13.149855
19 *208:19 26.289855
20 *208:20 91.989855
21 *208:21 39.429855
22 *208:22 210.249855

*RES
1 *208:6 *208:21 106.706666667
2 *208:21 *208:10 1365.37333333
3 *208:10 *81:B 21.3733333333
4 *81:B *208:11 64.04
5 *208:12 *160:A 21.3733333333
6 *160:A *170:A 256.04
7 *170:A *208:11 149.373333333
8 *208:17 *208:11 106.706666667
9 *208:17 *175:A 149.373333333
10 *175:A *208:16 21.3733333333
11 *28:A *208:17 21.3733333333
12 *208:18 *140:Y 106.706666667
13 *208:19 *103:B 64.04
14 *103:B *208:17 728.035
15 *208:19 *208:21 853.373333333

*END

*D_NET *284 49.978485

*CONN
*I *162:C I *L 12.9138
*I *81:Y O *D AOI21X1
*N *284:3 *C

*CAP
1 *162:C 12.9138
2 *81:Y 0.0
3 *284:3 37.064685

*RES
1 *81:Y *162:C 170.706666667

*END

*D_NET *304 46.62101

*CONN
*I *162:Y O *D OAI21X1
*I *89:A I *L 17.3593
*N *304:3 *C

*CAP
1 *162:Y 0.0
2 *89:A 17.3593
3 *304:3 29.26171

*RES
1 *162:Y *89:A 170.706666667

*END

*D_NET *336 55.037985

*CONN
*I *129:Y O *D NAND2X1
*I *89:B I *L 17.9733
*N *336:3 *C

*CAP
1 *129:Y 0.0
2 *89:B 17.9733
3 *336:3 37.064685

*RES
1 *129:Y *89:B 170.706666667

*END

*D_NET *209 189.59201

*CONN
*I *150:D I *L 8.82947
*I *89:Y O *D AOI21X1
*N *209:3 *C
*N *209:4 *C

*CAP
1 *150:D 8.82947
2 *89:Y 0.0
3 *209:3 101.912685
4 *209:4 78.849855

*RES
1 *150:D *209:3 832.04
2 *209:3 *89:Y 106.706666667

*END

*D_NET *229 1722.27497

*CONN
*I *78:A I *L 17.346
*I *165:A I *L 17.346
*I *183:A I *L 18.6567
*I *43:Q O *D DFFPOSX1
*I *169:D I *L 18.6552
*I *168:B I *L 17.9972
*I *192:D I *L 18.6552
*I *190:D I *L 18.6552
*I *187:D I *L 18.6552
*I *201:B I *L 17.9733
*I *88:B I *L 17.9733
*N *229:12 *C
*N *229:13 *C
*N *229:14 *C
*N *229:15 *C
*N *229:16 *C
*N *229:17 *C
*N *229:18 *C
*N *229:19 *C
*N *229:20 *C
*N *229:21 *C
*N *229:22 *C
*N *229:23 *C
*N *229:24 *C
*N *229:25 *C
*N *229:26 *C
*N *229:27 *C
*N *229:28 *C
*N *229:29 *C
*N *229:30 *C
*N *229:31 *C
*N *229:32 *C

*CAP
1 *78:A 17.346
2 *165:A 17.346
3 *183:A 18.6567
4 *43:Q 0.0
5 *169:D 18.6552
6 *168:B 17.9972
7 *192:D 18.6552
8 *190:D 18.6552
9 *187:D 18.6552
10 *201:B 17.9733
11 *88:B 17.9733
12 *229:12 112.84651
13 *229:13 14.63771
14 *229:14 14.63771
15 *229:15 14.63771
16 *229:16 14.63771
17 *229:17 138.968685
18 *229:18 46.328685
19 *229:19 74.120685
20 *229:20 92.648685
21 *229:21 18.536685
22 *229:22 92.648685
23 *229:23 176.024685
24 *229:24 46.328685
25 *229:25 91.989855
26 *229:26 13.149855
27 *229:27 13.149855
28 *229:28 249.669855
29 *229:29 26.289855
30 *229:30 65.709855
31 *229:31 26.289855
32 *229:32 197.109855

*RES
1 *78:A *88:B 42.7066666667
2 *165:A *229:12 21.3733333333
3 *229:12 *229:13 640.04
4 *229:13 *88:B 64.04
5 *229:14 *229:17 42.7066666667
6 *229:17 *229:17 1013.37333333
7 *169:D *168:B 213.373333333
8 *168:B *229:17 192.04
9 *169:D *168:B 213.373333333
10 *229:18 *229:17 42.7066666667
11 *229:18 *187:D 21.3733333333
12 *187:D *192:D 426.706666667
13 *190:D *229:20 192.04
14 *229:20 *187:D 18.7016666667
15 *201:B *229:20 149.373333333
16 *229:20 *229:20 693.373333333
17 *229:20 *78:A 405.373333333
18 *43:Q *229:23 832.04
19 *229:24 *183:A 64.04
20 *183:A *229:23 242.701666667
21 *229:24 *229:26 800.04

*END

*D_NET *240 61.85901

*CONN
*I *23:B I *L 17.9733
*I *88:Y O *D AOI21X1
*N *240:3 *C

*CAP
1 *23:B 17.9733
2 *88:Y 0.0
3 *240:3 43.88571

*RES

*END

*D_NET *216 140.17384

*CONN
*I *182:Y O *D NAND3X1
*I *23:A I *L 17.3593
*N *216:3 *C
*N *216:4 *C

*CAP
1 *182:Y 0.0
2 *23:A 17.3593
3 *216:3 83.384685
4 *216:4 39.429855

*RES
1 *216:3 *23:A 405.373333333
2 *23:A *182:Y 341.373333333

*END

*D_NET *245 29.71761

*CONN
*I *161:Y O *D OAI21X1
*I *23:C I *L 15.0799
*N *245:3 *C

*CAP
1 *161:Y 0.0
2 *23:C 15.0799
3 *245:3 14.63771

*RES

*END

*D_NET *271 380.572195

*CONN
*I *142:B I *L 18.2038
*I *23:Y O *D AOI21X1
*N *271:3 *C
*N *271:4 *C
*N *271:5 *C

*CAP
1 *142:B 18.2038
2 *23:Y 0.0
3 *271:3 138.968685
4 *271:4 26.289855
5 *271:5 197.109855

*RES
1 *142:B *271:3 64.04
2 *271:3 *271:4 640.04
3 *271:4 *23:Y 106.706666667

*END

*D_NET *350 1792.891235

*CONN
*I *71:B I *L 18.2038
*I *97:B I *L 18.2038
*I *163:B I *L 18.2038
*I *114:B I *L 15.0643
*I *37:A I *L 15.8812
*I *21:A I *L 12.5
*I *191:Y O *D INVX4
*I *55:B I *L 17.9733
*I *58:B I *L 17.9733
*I *59:B I *L 17.9733
*N *350:11 *C
*N *350:12 *C
*N *350:13 *C
*N *350:14 *C
*N *350:15 *C
*N *350:16 *C
*N *350:17 *C
*N *350:18 *C
*N *350:19 *C
*N *350:20 *C
*N *350:21 *C
*N *350:22 *C
*N *350:23 *C
*N *350:24 *C

*CAP
1 *71:B 18.2038
2 *97:B 18.2038
3 *163:B 18.2038
4 *114:B 15.0643
5 *37:A 15.8812
6 *21:A 12.5
7 *191:Y 0.0
8 *55:B 17.9733
9 *58:B 17.9733
10 *59:B 17.9733
11 *350:11 190.96651
12 *350:12 138.968685
13 *350:13 240.872685
14 *350:14 55.592685
15 *350:15 83.384685
16 *350:16 74.120685
17 *350:17 46.328685
18 *350:18 166.760685
19 *350:19 13.149855
20 *350:20 262.809855
21 *350:21 13.149855
22 *350:22 144.549855
23 *350:23 118.269855
24 *350:24 91.989855

*RES
1 *191:Y *59:B 682.706666667
2 *55:B *59:B 1066.70666667
3 *58:B *55:B 256.04
4 *114:B *97:B 298.706666667
5 *97:B *350:11 448.04
6 *350:11 *58:B 64.04
7 *163:B *71:B 170.706666667
8 *71:B *97:B 341.373333333
9 *350:11 *350:11 480.04
10 *350:11 *350:14 1173.37333333
11 *350:15 *21:A 21.3733333333
12 *21:A *37:A 672.035

*END

*D_NET *365 71.42351

*CONN
*I *142:C I *L 12.9138
*I *59:Y O *D AOI21X1
*N *365:3 *C

*CAP
1 *142:C 12.9138
2 *59:Y 0.0
3 *365:3 58.50971

*RES
1 *142:C *59:Y 298.706666667

*END

*D_NET *360 94.63233

*CONN
*I *106:Y O *D INVX1
*I *55:A I *L 17.3593
*I *58:C I *L 15.0799
*N *360:4 *C
*N *360:5 *C
*N *360:6 *C

*CAP
1 *106:Y 0.0
2 *55:A 17.3593
3 *58:C 15.0799
4 *360:4 29.26171
5 *360:5 18.29371
6 *360:6 14.63771

*RES
1 *55:A *58:C 256.04
2 *55:A *106:Y 85.3733333333
3 *360:4 *360:5 42.7066666667

*END

*D_NET *298 68.18784

*CONN
*I *63:B I *L 17.9733
*I *58:Y O *D AOI21X1
*N *298:3 *C
*N *298:4 *C

*CAP
1 *63:B 17.9733
2 *58:Y 0.0
3 *298:3 37.064685
4 *298:4 13.149855

*RES
1 *298:3 *63:B 106.706666667
2 *63:B *58:Y 170.706666667

*END

*D_NET *261 133.01101

*CONN
*I *142:Y O *D OAI21X1
*I *11:A I *L 17.3593
*N *261:3 *C
*N *261:4 *C

*CAP
1 *142:Y 0.0
2 *11:A 17.3593
3 *261:3 10.521855
4 *261:4 105.129855

*RES
1 *261:3 *142:Y 106.706666667
2 *261:3 *11:A 192.04

*END

*D_NET *325 215.083155

*CONN
*I *80:Y O *D NAND2X1
*I *11:B I *L 17.9733
*N *325:3 *C

*CAP
1 *80:Y 0.0
2 *11:B 17.9733
3 *325:3 197.109855

*RES
1 *80:Y *11:B 42.7066666667

*END

*D_NET *250 92.214155

*CONN
*I *147:D I *L 8.82947
*I *11:Y O *D AOI21X1
*N *250:3 *C

*CAP
1 *147:D 8.82947
2 *11:Y 0.0
3 *250:3 83.384685

*RES
1 *147:D *11:Y 298.706666667

*END

*D_NET *214 140.183695

*CONN
*I *158:Y O *D OAI21X1
*I *56:A I *L 17.3593
*N *214:3 *C
*N *214:4 *C
*N *214:5 *C

*CAP
1 *158:Y 0.0
2 *56:A 17.3593
3 *214:3 83.384685
4 *214:4 13.149855
5 *214:5 26.289855

*RES
1 *158:Y *214:3 106.706666667
2 *214:3 *214:4 384.04
3 *214:4 *56:A 149.373333333

*END

*D_NET *329 975.72377

*CONN
*I *171:B I *L 18.2038
*I *100:A I *L 15.8812
*I *174:A I *L 15.8812
*I *101:A I *L 15.8812
*I *182:A I *L 15.8812
*I *176:Y O *D INVX2
*I *56:B I *L 17.9733
*N *329:8 *C
*N *329:9 *C
*N *329:10 *C
*N *329:11 *C
*N *329:12 *C
*N *329:13 *C
*N *329:14 *C
*N *329:15 *C
*N *329:16 *C
*N *329:17 *C

*CAP
1 *171:B 18.2038
2 *100:A 15.8812
3 *174:A 15.8812
4 *101:A 15.8812
5 *182:A 15.8812
6 *176:Y 0.0
7 *56:B 17.9733
8 *329:8 46.328685
9 *329:9 129.704685
10 *329:10 240.872685
11 *329:11 64.856685
12 *329:12 13.149855