*SPEF "IEEE 1481-2009"
*DESIGN "mux4x1"
*DATE "2019-05-01 20:42:35.814463"
*VENDOR "AUC_STUDENTS"
*PROGRAM "Def2Spef_Converter"
*VERSION "0.0"
*DESIGN_FLOW "PROJECT2_FLOW"
*DIVIDER /
*DELIMITER :
*BUS_DELIMITER <>
*T_UNIT 1 PS
*C_UNIT 1 FF
*R_UNIT 1 KOHM
*L_UNIT 1 UH

*NAME_MAP

*D_NET _8_ 
*CONN
*I NAND3X1_4:Y O *D NAND3X1
*I AND2X2_2:A I *L 0.0180033
*CAP
*RES
*END

*D_NET _2_ 
*CONN
*I NAND3X1_2:Y O *D NAND3X1
*I AND2X2_1:A I *L 0.0180033
*CAP
*RES
*END

*D_NET y<1> 
*CONN
*P y<1> O
*I BUFX2_2:Y O *D BUFX2
*CAP
*RES
*END

*D_NET _3_ 
*CONN
*I AND2X2_1:Y O *D AND2X2
*I NAND2X1_1:A I *L 0.0177118
*CAP
*RES
*END

*D_NET c<0> 
*CONN
*P c<0> I
*I NAND3X1_4:B I *L 0.022204
*CAP
*RES
*END

*D_NET y<0> 
*CONN
*P y<0> O
*I BUFX2_1:Y O *D BUFX2
*CAP
*RES
*END

*D_NET _0_ 
*CONN
*I NAND3X1_1:Y O *D NAND3X1
*I AND2X2_1:B I *L 0.0177358
*CAP
*RES
*END

*D_NET d<1> 
*CONN
*P d<1> I
*I NAND3X1_1:C I *L 0.0226301
*CAP
*RES
*END

*D_NET sel<0> 
*CONN
*P sel<0> I
*I NAND3X1_1:A I *L 0.0222511
*I INVX1_1:A I *L 0.0134094
*I NOR2X1_1:A I *L 0.0222369
*I NAND3X1_3:A I *L 0.0222511
*CAP
*RES
*END

*D_NET b<1> 
*CONN
*P b<1> I
*I AOI22X1_1:C I *L 0.0270661
*CAP
*RES
*END

*D_NET sel<1> 
*CONN
*P sel<1> I
*I NAND3X1_1:B I *L 0.022204
*I NAND3X1_2:A I *L 0.0222511
*I NOR2X1_1:B I *L 0.0227534
*I NOR2X1_2:A I *L 0.0222369
*I NAND3X1_3:B I *L 0.022204
*I NAND3X1_4:A I *L 0.0222511
*CAP
*RES
*END

*D_NET _11_<0> 
*CONN
*I NAND2X1_2:Y O *D NAND2X1
*I BUFX2_1:A I *L 0.0134147
*CAP
*RES
*END

*D_NET _11_<1> 
*CONN
*I NAND2X1_1:Y O *D NAND2X1
*I BUFX2_2:A I *L 0.0134147
*CAP
*RES
*END

*D_NET _5_ 
*CONN
*I NOR2X1_2:Y O *D NOR2X1
*I AOI22X1_1:D I *L 0.0273706
*I AOI22X1_2:D I *L 0.0273706
*CAP
*RES
*END

*D_NET _4_ 
*CONN
*I NOR2X1_1:Y O *D NOR2X1
*I AOI22X1_1:B I *L 0.0268737
*I AOI22X1_2:B I *L 0.0268737
*CAP
*RES
*END

*D_NET _9_ 
*CONN
*I AND2X2_2:Y O *D AND2X2
*I NAND2X1_2:A I *L 0.0177118
*CAP
*RES
*END

*D_NET a<0> 
*CONN
*P a<0> I
*I AOI22X1_2:A I *L 0.0265618
*CAP
*RES
*END

*D_NET a<1> 
*CONN
*P a<1> I
*I AOI22X1_1:A I *L 0.0265618
*CAP
*RES
*END

*D_NET _10_ 
*CONN
*I AOI22X1_2:Y O *D AOI22X1
*I NAND2X1_2:B I *L 0.0180112
*CAP
*RES
*END

*D_NET c<1> 
*CONN
*P c<1> I
*I NAND3X1_2:B I *L 0.022204
*CAP
*RES
*END

*D_NET b<0> 
*CONN
*P b<0> I
*I AOI22X1_2:C I *L 0.0270661
*CAP
*RES
*END

*D_NET _1_ 
*CONN
*I INVX1_1:Y O *D INVX1
*I NAND3X1_2:C I *L 0.0226301
*I NOR2X1_2:B I *L 0.0227534
*I NAND3X1_4:C I *L 0.0226301
*CAP
*RES
*END

*D_NET _6_ 
*CONN
*I AOI22X1_1:Y O *D AOI22X1
*I NAND2X1_1:B I *L 0.0180112
*CAP
*RES
*END

*D_NET _7_ 
*CONN
*I NAND3X1_3:Y O *D NAND3X1
*I AND2X2_2:B I *L 0.0177358
*CAP
*RES
*END

*D_NET d<0> 
*CONN
*P d<0> I
*I NAND3X1_3:C I *L 0.0226301
*CAP
*RES
*END


