*SPEF "IEEE 1481-2009"
*DESIGN "qspifi"
*DATE "2019-05-22 01:32:40.093152"
*VENDOR "AUC_STUDENTS"
*PROGRAM "Def2Spef_Converter"
*VERSION "0.0"
*DESIGN_FLOW "PROJECT2_FLOW"
*DIVIDER /
*DELIMITER :
*BUS_DELIMITER <>
*T_UNIT 1 PS
*C_UNIT 1 FF
*R_UNIT 1 KOHM
*L_UNIT 1 UH

*NAME_MAP

*1 FILL_8_0_0
*2 FILL_8_0_1
*3 FILL_8_0_2
*4 AOI21X1_14
*5 FILL_3_0_2
*6 FILL_3_0_1
*7 FILL_3_0_0
*8 FILL_8_1_0
*9 NAND3X1_4
*10 FILL_5_1_0
*11 FILL_5_1_1
*12 FILL_5_1_2
*13 FILL_5_2
*14 FILL_8_1
*15 INVX1_2
*16 INVX1_3
*17 OAI21X1_24
*18 FILL_4_0_0
*19 NOR2X1_1
*20 BUFX4_20
*21 BUFX4_21
*22 BUFX4_22
*23 BUFX4_23
*24 BUFX4_24
*25 BUFX4_25
*26 INVX1_4
*27 INVX1_6
*28 FILL_6_0_2
*29 AOI22X1_11
*30 FILL_6_0_0
*31 AOI21X1_12
*32 BUFX2_13
*33 BUFX2_12
*34 BUFX2_11
*35 BUFX2_10
*36 BUFX2_17
*37 BUFX2_16
*38 BUFX2_15
*39 BUFX2_14
*40 NOR2X1_20
*41 NOR2X1_21
*42 NOR2X1_22
*43 BUFX2_18
*44 NOR2X1_24
*45 NOR2X1_25
*46 FILL_1_1_0
*47 FILL_1_1_1
*48 FILL_1_1_2
*49 FILL_8_1_1
*50 BUFX2_35
*51 BUFX4_11
*52 DFFSR_26
*53 BUFX2_2
*54 OAI21X1_40
*55 INVX1_1
*56 NAND3X1_1
*57 FILL_4_1
*58 BUFX2_36
*59 BUFX2_4
*60 BUFX2_26
*61 FILL_8_2
*62 BUFX2_24
*63 BUFX2_25
*64 BUFX2_22
*65 BUFX2_23
*66 BUFX2_20
*67 BUFX2_21
*68 BUFX2_28
*69 BUFX2_29
*70 FILL_3_1_2
*71 INVX1_5
*72 FILL_3_1_0
*73 FILL_3_1_1
*74 FILL_7_1_2
*75 FILL_7_1_0
*76 FILL_7_1_1
*77 NAND2X1_3
*78 FILL_0_1_0
*79 NAND3X1_3
*80 AOI21X1_17
*81 AOI21X1_16
*82 AOI21X1_15
*83 FILL_0_1_2
*84 AOI21X1_13
*85 INVX1_7
*86 AOI21X1_11
*87 AOI21X1_10
*88 INVX1_8
*89 INVX1_9
*90 FILL_7_1
*91 AOI21X1_18
*92 AOI22X1_1
*93 NOR2X1_4
*94 NAND3X1_2
*95 DFFNEGX1_1
*96 FILL_1_0_1
*97 FILL_1_0_0
*98 FILL_1_0_2
*99 NOR2X1_12
*100 DFFNEGX1_2
*101 DFFNEGX1_3
*102 FILL_4_1_1
*103 FILL_4_1_0
*104 OAI21X1_28
*105 FILL_4_1_2
*106 OAI21X1_26
*107 OAI21X1_27
*108 NAND2X1_6
*109 OAI21X1_25
*110 OAI21X1_22
*111 OAI21X1_23
*112 NAND2X1_2
*113 DFFNEGX1_5
*114 AOI21X1_7
*115 AOI21X1_6
*116 AOI21X1_5
*117 AOI21X1_4
*118 AOI21X1_3
*119 AOI21X1_2
*120 AOI21X1_1
*121 DFFSR_20
*122 BUFX4_10
*123 BUFX4_13
*124 BUFX4_12
*125 DFFSR_24
*126 BUFX4_14
*127 AOI21X1_9
*128 DFFSR_27
*129 DFFSR_5
*130 DFFSR_4
*131 DFFSR_7
*132 DFFSR_6
*133 DFFSR_1
*134 DFFSR_3
*135 DFFSR_2
*136 FILL_2_0_2
*137 FILL_2_0_0
*138 FILL_2_0_1
*139 FILL_2_1
*140 DFFSR_8
*141 INVX2_2
*142 NAND3X1_8
*143 BUFX2_27
*144 OAI21X1_29
*145 FILL_7_0_2
*146 FILL_7_0_1
*147 FILL_7_0_0
*148 FILL_1_2
*149 BUFX4_17
*150 FILL_1_1
*151 OAI21X1_39
*152 OAI21X1_38
*153 NAND2X1_5
*154 OAI21X1_35
*155 OAI21X1_34
*156 OAI21X1_37
*157 OAI21X1_36
*158 OAI21X1_31
*159 OAI21X1_30
*160 OAI21X1_33
*161 OAI21X1_32
*162 INVX1_14
*163 INVX1_15
*164 INVX1_16
*165 INVX1_17
*166 INVX1_10
*167 INVX1_11
*168 INVX1_12
*169 INVX1_13
*170 DFFSR_33
*171 DFFSR_32
*172 DFFSR_31
*173 DFFSR_30
*174 INVX1_18
*175 INVX1_19
*176 NAND2X1_1
*177 BUFX2_39
*178 BUFX2_38
*179 NOR2X1_3
*180 NOR2X1_2
*181 NOR2X1_5
*182 OAI21X1_20
*183 NOR2X1_7
*184 NOR2X1_6
*185 NOR2X1_9
*186 BUFX2_30
*187 BUFX2_33
*188 BUFX2_32
*189 INVX2_1
*190 BUFX2_34
*191 BUFX2_37
*192 FILL_5_1
*193 OAI21X1_7
*194 OAI21X1_6
*195 OAI21X1_5
*196 OAI21X1_4
*197 OAI21X1_3
*198 OAI21X1_2
*199 OAI21X1_1
*200 BUFX4_18
*201 OAI21X1_9
*202 OAI21X1_8
*203 BUFX2_31
*204 BUFX4_9
*205 BUFX4_8
*206 NOR2X1_8
*207 BUFX4_5
*208 BUFX4_4
*209 BUFX4_7
*210 BUFX4_6
*211 BUFX4_1
*212 FILL_4_0_1
*213 FILL_4_0_2
*214 BUFX4_2
*215 OAI21X1_17
*216 FILL_8_1_2
*217 BUFX2_9
*218 BUFX2_8
*219 BUFX2_7
*220 BUFX2_6
*221 BUFX2_5
*222 BUFX4_19
*223 BUFX2_3
*224 NOR2X1_13
*225 BUFX2_1
*226 AOI21X1_8
*227 FILL_0_1_1
*228 FILL_2_1_2
*229 FILL_2_1_1
*230 FILL_2_1_0
*231 DFFSR_21
*232 OAI21X1_13
*233 FILL_6_0_1
*234 DFFSR_22
*235 NOR2X1_14
*236 OAI21X1_16
*237 DFFSR_23
*238 NOR2X1_17
*239 BUFX4_15
*240 NOR2X1_16
*241 FILL_5_0_1
*242 FILL_5_0_0
*243 FILL_5_0_2
*244 NOR2X1_11
*245 NOR2X1_10
*246 OAI21X1_15
*247 OAI21X1_14
*248 NOR2X1_15
*249 OAI21X1_12
*250 OAI21X1_11
*251 OAI21X1_10
*252 NOR2X1_19
*253 NOR2X1_18
*254 AOI22X1_10
*255 BUFX4_16
*256 DFFSR_28
*257 OAI21X1_19
*258 OAI21X1_18
*259 DFFSR_11
*260 DFFSR_10
*261 DFFSR_13
*262 DFFSR_12
*263 DFFSR_15
*264 DFFSR_14
*265 NAND3X1_5
*266 DFFSR_16
*267 DFFSR_19
*268 DFFSR_18
*269 FILL_6_1_2
*270 FILL_6_1_1
*271 FILL_6_1_0
*272 DFFSR_29
*273 OR2X2_3
*274 OR2X2_2
*275 OR2X2_1
*276 NOR2X1_23
*277 DFFNEGX1_4
*278 DFFSR_25
*279 NAND2X1_4
*280 AOI22X1_6
*281 NOR3X1_1
*282 NOR3X1_2
*283 NOR3X1_3
*284 BUFX2_19
*285 AND2X2_1
*286 INVX1_25
*287 INVX1_24
*288 NAND3X1_7
*289 NAND3X1_6
*290 INVX1_21
*291 INVX1_20
*292 INVX1_23
*293 INVX1_22
*294 AOI22X1_8
*295 AOI22X1_9
*296 DFFSR_17
*297 DFFSR_9
*298 AOI22X1_2
*299 AOI22X1_3
*300 AOI22X1_4
*301 AOI22X1_5
*302 INVX4_1
*303 AOI22X1_7
*304 BUFX4_3
*305 FILL_0_0_0
*306 FILL_0_0_1
*307 FILL_0_0_2
*308 OAI21X1_21
*309 _2_<6>
*310 spi_clk
*311 _2_<13>
*312 _41_
*313 spi_data<21>
*314 _10_
*315 spi_data<7>
*316 ahb_addr<4>
*317 _79_
*318 _105_<9>
*319 _94_
*320 ahb_addr<31>
*321 spi_data<24>
*322 spi_cntr<0>
*323 ahb_addr<18>
*324 _49_
*325 _100_
*326 spi_data<19>
*327 _34_
*328 _105_<7>
*329 ahb_addr<10>
*330 clk
*331 _48_
*332 _26_
*333 ahb_addr<25>
*334 spi_data<11>
*335 spi_data<29>
*336 _18_
*337 _8_
*338 _2_<1>
*339 _71_
*340 ctrl_addr_wr
*341 _103_<1>
*342 _55_
*343 _66_
*344 _42_
*345 _17_
*346 ahb_addr<19>
*347 _2_<12>
*348 spi_data<20>
*349 _93_
*350 _105_<24>
*351 ahb_addr<3>
*352 spi_O<0>
*353 _105_<28>
*354 _83_
*355 spi_data<12>
*356 spi_I<2>
*357 ahb_addr<24>
*358 _105_<20>
*359 spi_data<16>
*360 spi_cntr<1>
*361 spi_O<3>
*362 _6_
*363 _86_
*364 _105_<12>
*365 spi_I<3>
*366 _2_<24>
*367 ahb_addr<11>
*368 _37_
*369 spi_data<23>
*370 _105_<8>
*371 _9_
*372 _105_<16>
*373 _27_
*374 _105_<0>
*375 _67_
*376 _47_
*377 _40__bF$buf2
*378 _40__bF$buf3
*379 _40__bF$buf0
*380 _40__bF$buf1
*381 _77_
*382 spi_O<2>
*383 _28_
*384 spi_O<1>
*385 _2_<4>
*386 spi_cntr<2>
*387 _60_
*388 ahb_addr<2>
*389 _84_
*390 spi_data<28>
*391 _102_
*392 _59_
*393 _105_<21>
*394 spi_data<3>
*395 _105_<23>
*396 _3_
*397 spi_data<13>
*398 _41__bF$buf1
*399 _41__bF$buf0
*400 _41__bF$buf3
*401 _41__bF$buf2
*402 _1_<0>
*403 _88_
*404 _33_
*405 _70_
*406 _2_<23>
*407 _2_<25>
*408 _65_
*409 _20_
*410 _103_<2>
*411 ahb_addr<16>
*412 _68_
*413 _32_
*414 spi_data<6>
*415 _105_<1>
*416 _57_
*417 _1_<1>
*418 reset_bF$buf4
*419 _12_
*420 spi_data<5>
*421 reset_bF$buf0
*422 reset_bF$buf1
*423 reset_bF$buf2
*424 reset_bF$buf3
*425 spi_cntr<3>
*426 _81_
*427 _76_
*428 _11_
*429 _105_<18>
*430 _29_
*431 _61_
*432 spi_data<22>
*433 _95_
*434 clk_bF$buf5
*435 clk_bF$buf4
*436 clk_bF$buf3
*437 ahb_addr<22>
*438 clk_bF$buf1
*439 clk_bF$buf0
*440 _89_
*441 spi_data<8>
*442 _0_
*443 spi_I<0>
*444 _101_
*445 spi_data<14>
*446 _35_
*447 _105_<26>
*448 spi_data<9>
*449 _2_<2>
*450 _105_<13>
*451 _19_
*452 ahb_addr<17>
*453 _105_<10>
*454 _21_
*455 _105_<2>
*456 _56_
*457 _69_
*458 _40_
*459 _54_
*460 spi_CS
*461 clk_bF$buf2
*462 _51_
*463 _62_
*464 spi_data<31>
*465 _98_
*466 _14_
*467 _38_
*468 _90_
*469 ahb_addr<14>
*470 spi_cntr<4>
*471 _2_<17>
*472 ahb_addr<21>
*473 spi_data<25>
*474 spi_I<1>
*475 _2_<27>
*476 spi_data<15>
*477 _105_<27>
*478 _80_
*479 _22_
*480 _4_
*481 _2_<30>
*482 _105_<17>
*483 ahb_addr<9>
*484 _45_
*485 spi_data<0>
*486 ahb_addr<28>
*487 ahb_addr<29>
*488 _30_
*489 _1_<3>
*490 ahb_addr<1>
*491 _2_<5>
*492 _75_
*493 _105_<29>
*494 spi_data<26>
*495 _105_<3>
*496 _42__bF$buf0
*497 _2_<14>
*498 _50_
*499 ahb_addr<7>
*500 _2_<16>
*501 _97_
*502 _63_
*503 _2_<11>
*504 _87_
*505 ahb_addr<15>
*506 spi_obuf_en
*507 _105_<6>
*508 _58_
*509 ahb_addr<20>
*510 reset
*511 _23_
*512 _104_
*513 spi_data<30>
*514 _5_
*515 _2_<20>
*516 _2_<15>
*517 ahb_addr<8>
*518 ahb_addr<0>
*519 _42__bF$buf1
*520 _42__bF$buf2
*521 _42__bF$buf3
*522 _42__bF$buf4
*523 _42__bF$buf5
*524 _99_
*525 spi_data<4>
*526 _1_<2>
*527 _105_<4>
*528 _46_
*529 _13_
*530 _96_
*531 _92_
*532 _43_
*533 _64_
*534 ahb_addr<23>
*535 ahb_addr<6>
*536 _2_<8>
*537 _16_
*538 _2_<29>
*539 _2_<7>
*540 _105_<15>
*541 _105_<19>
*542 _2_<26>
*543 spi_data<27>
*544 _74_
*545 _1_<4>
*546 ahb_addr<12>
*547 _2_<31>
*548 _2_<19>
*549 _2_<21>
*550 spi_data<1>
*551 spi_data<10>
*552 ahb_addr<27>
*553 spi_data<17>
*554 _105_<25>
*555 _36_
*556 _24_
*557 _103_<3>
*558 _78_
*559 spi_data<2>
*560 _105_<5>
*561 _53_
*562 _105_<31>
*563 _73_
*564 _2_<3>
*565 _39_
*566 ahb_addr<5>
*567 _52_
*568 spi_data<18>
*569 _105_<11>
*570 _15_
*571 _91_
*572 _2_<9>
*573 _2_<10>
*574 _2_<28>
*575 _105_<14>
*576 ctrl_spi_start
*577 _85_
*578 ahb_addr<30>
*579 _2_<22>
*580 _105_<30>
*581 ahb_addr<13>
*582 _7_
*583 _106_
*584 _2_<18>
*585 ahb_addr<26>
*586 _31_
*587 _105_<22>
*588 _82_
*589 vdd
*590 _2_<0>
*591 _25_
*592 _44_
*593 _103_<0>
*594 _72_

*PORTS
*1 I
*2 I


*END

*D_NET *344 1068.09624

*CONN
*I *274:Y O *D OR2X2
*I *210:A I *L 13.9855
*I *207:A I *L 13.9855
*I *208:A I *L 13.9855
*I *304:A I *L 13.9855
*I *214:A I *L 13.9855
*I *211:A I *L 13.9855
*N *344:8 *C
*N *344:9 *C
*N *344:10 *C
*N *344:11 *C
*N *344:12 *C
*N *344:13 *C
*N *344:14 *C
*N *344:15 *C
*N *344:16 *C
*N *344:17 *C
*N *344:18 *C
*N *344:19 *C

*CAP
1 *274:Y 0.0
2 *210:A 13.9855
3 *207:A 13.9855
4 *208:A 13.9855
5 *304:A 13.9855
6 *214:A 13.9855
7 *211:A 13.9855
8 *344:8 101.912685
9 *344:9 129.704685
10 *344:10 9.272685
11 *344:11 74.120685
12 *344:12 18.536685
13 *344:13 203.816685
14 *344:14 39.429855
15 *344:15 105.129855
16 *344:16 105.129855
17 *344:17 118.269855
18 *344:18 52.569855
19 *344:19 26.289855

*RES
1 *344:12 *214:A 149.373333333
2 *214:A *344:9 618.706666667
3 *344:9 *211:A 21.3733333333
4 *344:9 *214:A 448.04
5 *210:A *274:Y 85.3733333333
6 *274:Y *344:9 149.373333333
7 *207:A *210:A 341.373333333
8 *304:A *344:9 106.706666667
9 *344:9 *344:12 480.04
10 *344:13 *208:A 149.373333333
11 *208:A *344:12 1088.04
12 *344:13 *344:15 106.706666667

*END

*D_NET *523 1468.19443

*CONN
*I *160:B I *L 18.2038
*I *250:B I *L 18.2038
*I *81:B I *L 17.9733
*I *111:B I *L 18.2038
*I *201:B I *L 18.2038
*I *116:B I *L 17.9733
*I *244:B I *L 15.0643
*I *42:B I *L 15.0643
*I *211:Y O *D BUFX4
*N *523:10 *C
*N *523:11 *C
*N *523:12 *C
*N *523:13 *C
*N *523:14 *C
*N *523:15 *C
*N *523:16 *C
*N *523:17 *C
*N *523:18 *C
*N *523:19 *C
*N *523:20 *C
*N *523:21 *C
*N *523:22 *C
*N *523:23 *C
*N *523:24 *C
*N *523:25 *C

*CAP
1 *160:B 18.2038
2 *250:B 18.2038
3 *81:B 17.9733
4 *111:B 18.2038
5 *201:B 18.2038
6 *116:B 17.9733
7 *244:B 15.0643
8 *42:B 15.0643
9 *211:Y 0.0
10 *523:10 14.63771
11 *523:11 14.63771
12 *523:12 27.800685
13 *523:13 129.704685
14 *523:14 18.536685
15 *523:15 55.592685
16 *523:16 120.440685
17 *523:17 361.304685
18 *523:18 46.328685
19 *523:19 27.800685
20 *523:20 78.849855
21 *523:21 262.809855
22 *523:22 39.429855
23 *523:23 105.129855
24 *523:24 13.149855
25 *523:25 13.149855

*RES
1 *523:10 *111:B 106.706666667
2 *111:B *211:Y 128.04
3 *523:11 *523:12 42.7066666667
4 *523:12 *523:10 597.373333333
5 *116:B *523:13 149.373333333
6 *523:13 *523:12 85.3733333333
7 *523:14 *244:B 362.706666667
8 *523:15 *523:16 42.7066666667
9 *523:16 *250:B 21.3733333333
10 *250:B *201:B 640.04
11 *523:19 *523:16 426.706666667
12 *523:19 *250:B 1685.37333333
13 *81:B *160:B 256.04
14 *160:B *523:19 106.706666667
15 *523:20 *42:B 21.3733333333
16 *42:B *81:B 170.706666667

*END

*D_NET *522 1491.156415

*CONN
*I *4:B I *L 17.9733
*I *82:B I *L 17.9733
*I *41:B I *L 15.0643
*I *40:B I *L 15.0643
*I *109:B I *L 18.2038
*I *144:B I *L 18.2038
*I *115:B I *L 17.9733
*I *158:B I *L 18.2038
*I *214:Y O *D BUFX4
*N *522:10 *C
*N *522:11 *C
*N *522:12 *C
*N *522:13 *C
*N *522:14 *C
*N *522:15 *C
*N *522:16 *C
*N *522:17 *C
*N *522:18 *C
*N *522:19 *C
*N *522:20 *C
*N *522:21 *C
*N *522:22 *C
*N *522:23 *C
*N *522:24 *C

*CAP
1 *4:B 17.9733
2 *82:B 17.9733
3 *41:B 15.0643
4 *40:B 15.0643
5 *109:B 18.2038
6 *144:B 18.2038
7 *115:B 17.9733
8 *158:B 18.2038
9 *214:Y 0.0
10 *522:10 43.88571
11 *522:11 14.63771
12 *522:12 37.064685
13 *522:13 18.536685
14 *522:14 305.720685
15 *522:15 111.176685
16 *522:16 157.496685
17 *522:17 46.328685
18 *522:18 105.129855
19 *522:19 118.269855
20 *522:20 26.289855
21 *522:21 52.569855
22 *522:22 65.709855
23 *522:23 39.429855
24 *522:24 210.249855

*RES
1 *115:B *214:Y 170.706666667
2 *522:14 *109:B 106.706666667
3 *109:B *214:Y 128.04
4 *522:11 *522:19 128.04
5 *522:11 *158:B 234.706666667
6 *158:B *522:19 1642.70666667
7 *522:11 *522:14 106.706666667
8 *522:15 *144:B 64.04
9 *144:B *522:18 448.04
10 *522:18 *522:18 266.706666667
11 *40:B *82:B 170.706666667
12 *82:B *522:18 789.373333333
13 *522:18 *522:20 853.373333333
14 *41:B *4:B 256.04

*END

*D_NET *521 1158.215455

*CONN
*I *226:B I *L 17.9733
*I *245:B I *L 15.0643
*I *87:B I *L 17.9733
*I *235:B I *L 15.0643
*I *215:B I *L 18.2038
*I *240:B I *L 15.0643
*I *308:B I *L 18.2038
*I *117:B I *L 17.9733
*I *304:Y O *D BUFX4
*N *521:10 *C
*N *521:11 *C
*N *521:12 *C
*N *521:13 *C
*N *521:14 *C
*N *521:15 *C
*N *521:16 *C
*N *521:17 *C
*N *521:18 *C
*N *521:19 *C
*N *521:20 *C
*N *521:21 *C
*N *521:22 *C
*N *521:23 *C
*N *521:24 *C
*N *521:25 *C
*N *521:26 *C

*CAP
1 *226:B 17.9733
2 *245:B 15.0643
3 *87:B 17.9733
4 *235:B 15.0643
5 *215:B 18.2038
6 *240:B 15.0643
7 *308:B 18.2038
8 *117:B 17.9733
9 *304:Y 0.0
10 *521:10 18.29371
11 *521:11 29.26171
12 *521:12 55.592685
13 *521:13 64.856685
14 *521:14 27.800685
15 *521:15 92.648685
16 *521:16 55.592685
17 *521:17 27.800685
18 *521:18 46.328685
19 *521:19 210.249855
20 *521:20 13.149855
21 *521:21 65.709855
22 *521:22 52.569855
23 *521:23 52.569855
24 *521:24 39.429855
25 *521:25 91.989855
26 *521:26 78.849855

*RES
1 *308:B *521:10 106.706666667
2 *521:10 *304:Y 149.373333333
3 *240:B *308:B 298.706666667
4 *521:14 *521:10 53.3733333333
5 *521:14 *240:B 234.706666667
6 *521:13 *215:B 106.706666667
7 *215:B *87:B 426.706666667
8 *87:B *521:14 106.706666667
9 *235:B *521:15 106.706666667
10 *521:15 *215:B 362.706666667
11 *521:22 *521:15 160.04
12 *521:22 *521:15 128.04
13 *521:20 *521:15 53.3733333333
14 *521:20 *521:15 85.3733333333
15 *117:B *245:B 42.7066666667
16 *245:B *226:B 170.706666667
17 *226:B *521:22 106.706666667

*END

*D_NET *520 1590.4761

*CONN
*I *252:B I *L 15.0643
*I *232:B I *L 18.2038
*I *276:B I *L 15.0643
*I *206:B I *L 15.0643
*I *195:B I *L 18.2038
*I *80:B I *L 17.9733
*I *119:B I *L 17.9733
*I *154:B I *L 18.2038
*I *208:Y O *D BUFX4
*N *520:10 *C
*N *520:11 *C
*N *520:12 *C
*N *520:13 *C
*N *520:14 *C
*N *520:15 *C
*N *520:16 *C
*N *520:17 *C
*N *520:18 *C
*N *520:19 *C
*N *520:20 *C
*N *520:21 *C
*N *520:22 *C
*N *520:23 *C
*N *520:24 *C
*N *520:25 *C
*N *520:26 *C
*N *520:27 *C

*CAP
1 *252:B 15.0643
2 *232:B 18.2038
3 *276:B 15.0643
4 *206:B 15.0643
5 *195:B 18.2038
6 *80:B 17.9733
7 *119:B 17.9733
8 *154:B 18.2038
9 *208:Y 0.0
10 *520:10 176.024685
11 *520:11 111.176685
12 *520:12 287.192685
13 *520:13 64.856685
14 *520:14 27.800685
15 *520:15 18.536685
16 *520:16 46.328685
17 *520:17 52.569855
18 *520:18 26.289855
19 *520:19 26.289855
20 *520:20 118.269855
21 *520:21 26.289855
22 *520:22 39.429855
23 *520:23 26.289855
24 *520:24 236.529855
25 *520:25 26.289855
26 *520:26 131.409855
27 *520:27 13.149855

*RES
1 *520:14 *520:22 213.373333333
2 *520:14 *208:Y 874.706666667
3 *208:Y *520:12 64.04
4 *252:B *520:13 106.706666667
5 *520:13 *232:B 405.373333333
6 *232:B *520:14 106.706666667
7 *154:B *520:15 64.04
8 *520:15 *520:13 1322.70666667
9 *80:B *520:16 106.706666667
10 *520:16 *520:15 298.706666667
11 *276:B *520:17 106.706666667
12 *520:17 *520:16 128.04
13 *195:B *520:17 64.04
14 *520:18 *206:B 106.706666667
15 *206:B *119:B 170.706666667
16 *119:B *195:B 85.3733333333
17 *520:19 *206:B 106.706666667

*END

*D_NET *519 1077.292365

*CONN
*I *246:B I *L 18.2038
*I *118:B I *L 17.9733
*I *193:B I *L 18.2038
*I *224:B I *L 15.0643
*I *114:B I *L 17.9733
*I *185:B I *L 15.0643
*I *84:B I *L 17.9733
*I *107:B I *L 18.2038
*I *207:Y O *D BUFX4
*N *519:10 *C
*N *519:11 *C
*N *519:12 *C
*N *519:13 *C
*N *519:14 *C
*N *519:15 *C
*N *519:16 *C
*N *519:17 *C
*N *519:18 *C
*N *519:19 *C
*N *519:20 *C
*N *519:21 *C
*N *519:22 *C
*N *519:23 *C

*CAP
1 *246:B 18.2038
2 *118:B 17.9733
3 *193:B 18.2038
4 *224:B 15.0643
5 *114:B 17.9733
6 *185:B 15.0643
7 *84:B 17.9733
8 *107:B 18.2038
9 *207:Y 0.0
10 *519:10 29.26171
11 *519:11 37.064685
12 *519:12 120.440685
13 *519:13 27.800685
14 *519:14 27.800685
15 *519:15 37.064685
16 *519:16 11.588685
17 *519:17 120.440685
18 *519:18 27.800685
19 *519:19 249.669855
20 *519:20 39.429855
21 *519:21 52.569855
22 *519:22 13.149855
23 *519:23 144.549855

*RES
1 *84:B *207:Y 170.706666667
2 *107:B *519:17 64.04
3 *519:19 *207:Y 192.04
4 *519:19 *519:12 160.04
5 *519:12 *519:13 554.706666667
6 *224:B *519:14 106.706666667
7 *519:14 *519:12 128.04
8 *246:B *114:B 170.706666667
9 *193:B *118:B 533.373333333
10 *118:B *185:B 170.706666667
11 *118:B *193:B 533.373333333
12 *118:B *519:15 618.706666667
13 *519:14 *118:B 64.04
14 *519:17 *519:18 128.04

*END

*D_NET *496 1435.05436

*CONN
*I *238:B I *L 15.0643
*I *127:B I *L 17.9733
*I *86:B I *L 17.9733
*I *99:B I *L 15.0643
*I *31:B I *L 17.9733
*I *257:B I *L 18.2038
*I *253:B I *L 15.0643
*I *248:B I *L 15.0643
*I *210:Y O *D BUFX4
*N *496:10 *C
*N *496:11 *C
*N *496:12 *C
*N *496:13 *C
*N *496:14 *C
*N *496:15 *C
*N *496:16 *C
*N *496:17 *C
*N *496:18 *C
*N *496:19 *C
*N *496:20 *C
*N *496:21 *C
*N *496:22 *C
*N *496:23 *C
*N *496:24 *C

*CAP
1 *238:B 15.0643
2 *127:B 17.9733
3 *86:B 17.9733
4 *99:B 15.0643
5 *31:B 17.9733
6 *257:B 18.2038
7 *253:B 15.0643
8 *248:B 15.0643
9 *210:Y 0.0
10 *496:10 225.68651
11 *496:11 185.288685
12 *496:12 92.648685
13 *496:13 27.800685
14 *496:14 11.588685
15 *496:15 166.760685
16 *496:16 27.800685
17 *496:17 65.709855
18 *496:18 26.289855
19 *496:19 13.149855
20 *496:20 13.149855
21 *496:21 157.689855
22 *496:22 157.689855
23 *496:23 13.149855
24 *496:24 118.269855

*RES
1 *496:17 *99:B 106.706666667
2 *99:B *496:11 746.706666667
3 *496:11 *210:Y 106.706666667
4 *496:12 *496:11 426.706666667
5 *496:12 *496:11 53.3733333333
6 *31:B *253:B 170.706666667
7 *253:B *496:12 106.706666667
8 *238:B *496:12 106.706666667
9 *86:B *31:B 85.3733333333
10 *257:B *496:15 64.04
11 *496:15 *257:B 64.04
12 *257:B *99:B 42.7066666667
13 *127:B *496:16 21.3733333333
14 *496:16 *257:B 704.04
15 *496:17 *248:B 234.706666667

*END

*D_NET *330 1677.8068

*CONN
*I *124:A I *L 13.9855
*I *51:A I *L 13.9855
*I *122:A I *L 13.9855
*I *204:A I *L 13.9855
*I *205:A I *L 13.9855
*I *209:A I *L 13.9855
*N *330:8 *C
*N *330:9 *C
*N *330:10 *C
*N *330:11 *C
*N *330:12 *C
*N *330:13 *C
*N *330:14 *C
*N *330:15 *C
*N *330:16 *C
*N *330:17 *C

*CAP
1 *124:A 13.9855
2 *51:A 13.9855
3 *122:A 13.9855
4 *204:A 13.9855
5 *205:A 13.9855
6 *209:A 13.9855
7 *330:7 46.328685
8 *330:8 240.872685
9 *330:9 713.336685
10 *330:10 148.232685
11 *330:11 129.646785
12 *330:12 144.549855
13 *330:13 26.289855
14 *330:14 26.289855
15 *330:15 65.709855
16 *330:16 52.569855

*RES
1 *204:A *122:A 213.373333333
2 *209:A *122:A 128.04
3 *330:17 *330:9 106.706666667
4 *330:9 *205:A 3136.04
5 *205:A *209:A 1109.37333333
6 *51:A *330:9 21.3733333333
7 *330:9 *124:A 533.373333333
8 *124:A *330:9 149.373333333
9 *330 *330:11 597.373333333

*END

*D_NET *434 1408.02872

*CONN
*I *266:CLK I *L 9.37511
*I *121:CLK I *L 9.37511
*I *134:CLK I *L 9.37511
*I *268:CLK I *L 9.37511
*I *262:CLK I *L 9.37511
*I *261:CLK I *L 9.37511
*I *234:CLK I *L 9.37511
*I *209:Y O *D BUFX4
*N *434:9 *C
*N *434:10 *C
*N *434:11 *C
*N *434:12 *C
*N *434:13 *C
*N *434:14 *C
*N *434:15 *C
*N *434:16 *C
*N *434:17 *C
*N *434:18 *C
*N *434:19 *C
*N *434:20 *C
*N *434:21 *C
*N *434:22 *C

*CAP
1 *266:CLK 9.37511
2 *121:CLK 9.37511
3 *134:CLK 9.37511
4 *268:CLK 9.37511
5 *262:CLK 9.37511
6 *261:CLK 9.37511
7 *234:CLK 9.37511
8 *209:Y 0.0
9 *434:9 138.968685
10 *434:10 240.872685
11 *434:11 148.232685
12 *434:12 83.384685
13 *434:13 9.272685
14 *434:14 27.800685
15 *434:15 78.849855
16 *434:16 10.521855
17 *434:17 262.809855
18 *434:18 65.709855
19 *434:19 13.149855
20 *434:20 197.109855
21 *434:21 26.289855
22 *434:22 39.429855

*RES
1 *234:CLK *209:Y 1066.70666667
2 *134:CLK *434:11 490.706666667
3 *134:CLK *434:10 533.373333333
4 *134:CLK *434:11 490.706666667
5 *434:12 *134:CLK 618.706666667
6 *266:CLK *434:13 448.04
7 *434:13 *434:12 682.706666667
8 *268:CLK *121:CLK 341.373333333
9 *121:CLK *262:CLK 1109.37333333
10 *434:18 *434:12 800.04
11 *434:18 *434:13 42.7066666667
12 *434:16 *261:CLK 490.706666667
13 *261:CLK *434:13 618.706666667
14 *434:16 *434:18 160.04

*END

*D_NET *435 1790.19552

*CONN
*I *272:CLK I *L 9.37511
*I *237:CLK I *L 9.37511
*I *278:CLK I *L 9.37511
*I *259:CLK I *L 9.37511
*I *296:CLK I *L 9.37511
*I *231:CLK I *L 9.37511
*I *267:CLK I *L 9.37511
*I *205:Y O *D BUFX4
*N *435:9 *C
*N *435:10 *C
*N *435:11 *C
*N *435:12 *C
*N *435:13 *C
*N *435:14 *C
*N *435:15 *C
*N *435:16 *C
*N *435:17 *C
*N *435:18 *C
*N *435:19 *C
*N *435:20 *C
*N *435:21 *C

*CAP
1 *272:CLK 9.37511
2 *237:CLK 9.37511
3 *278:CLK 9.37511
4 *259:CLK 9.37511
5 *296:CLK 9.37511
6 *231:CLK 9.37511
7 *267:CLK 9.37511
8 *205:Y 0.0
9 *435:9 138.88651
10 *435:10 83.384685
11 *435:11 101.912685
12 *435:12 203.816685
13 *435:13 64.856685
14 *435:14 222.344685
15 *435:15 370.568685
16 *435:16 52.569855
17 *435:17 197.109855
18 *435:18 197.109855
19 *435:19 39.429855
20 *435:20 13.149855
21 *435:21 39.429855

*RES
1 *435:9 *435:10 384.04
2 *435:10 *205:Y 64.04
3 *231:CLK *237:CLK 426.706666667
4 *237:CLK *435:9 490.706666667
5 *267:CLK *237:CLK 1365.37333333
6 *278:CLK *267:CLK 298.706666667
7 *435:13 *296:CLK 490.706666667
8 *296:CLK *435:9 490.706666667
9 *435:13 *278:CLK 448.04
10 *259:CLK *435:13 576.04
11 *435:14 *272:CLK 490.706666667
12 *272:CLK *296:CLK 1706.70666667

*END

*D_NET *436 1021.723805

*CONN
*I *128:CLK I *L 9.37511
*I *140:CLK I *L 9.37511
*I *170:CLK I *L 9.37511
*I *273:B I *L 14.3643
*I *130:CLK I *L 9.37511
*I *95:CLK I *L 29.5634
*I *172:CLK I *L 9.37511
*I *204:Y O *D BUFX4
*N *436:9 *C
*N *436:10 *C
*N *436:11 *C
*N *436:12 *C
*N *436:13 *C
*N *436:14 *C
*N *436:15 *C
*N *436:16 *C
*N *436:17 *C
*N *436:18 *C

*CAP
1 *128:CLK 9.37511
2 *140:CLK 9.37511
3 *170:CLK 9.37511
4 *273:B 14.3643
5 *130:CLK 9.37511
6 *95:CLK 29.5634
7 *172:CLK 9.37511
8 *204:Y 0.0
9 *436:9 14.63771
10 *436:10 83.384685
11 *436:11 129.704685
12 *436:12 9.272685
13 *436:13 74.120685
14 *436:14 120.440685
15 *436:15 78.849855
16 *436:16 78.849855
17 *436:17 275.949855
18 *436:18 65.709855

*RES
1 *130:CLK *95:CLK 512.04
2 *95:CLK *204:Y 170.706666667
3 *436:9 *95:CLK 362.706666667
4 *436:10 *436:9 597.373333333
5 *273:B *436:11 106.706666667
6 *436:11 *436:10 42.7066666667
7 *170:CLK *436:12 106.706666667
8 *172:CLK *140:CLK 938.706666667
9 *140:CLK *170:CLK 1152.04
10 *128:CLK *140:CLK 554.706666667

*END

*D_NET *461 1377.759255

*CONN
*I *277:CLK I *L 29.5634
*I *113:CLK I *L 29.5634
*I *100:CLK I *L 29.5634
*I *131:CLK I *L 9.37511
*I *263:CLK I *L 9.37511
*I *101:CLK I *L 29.5634
*I *122:Y O *D BUFX4
*N *461:8 *C
*N *461:9 *C
*N *461:10 *C
*N *461:11 *C
*N *461:12 *C
*N *461:13 *C
*N *461:14 *C
*N *461:15 *C
*N *461:16 *C
*N *461:17 *C
*N *461:18 *C
*N *461:19 *C
*N *461:20 *C

*CAP
1 *277:CLK 29.5634
2 *113:CLK 29.5634
3 *100:CLK 29.5634
4 *131:CLK 9.37511
5 *263:CLK 9.37511
6 *101:CLK 29.5634
7 *122:Y 0.0
8 *461:8 148.232685
9 *461:9 64.856685
10 *461:10 37.064685
11 *461:11 333.512685
12 *461:12 65.709855
13 *461:13 13.149855
14 *461:14 131.409855
15 *461:15 78.849855
16 *461:16 26.289855
17 *461:17 52.569855
18 *461:18 26.289855
19 *461:19 65.709855
20 *461:20 197.109855

*RES
1 *461:8 *277:CLK 192.04
2 *131:CLK *122:Y 1066.70666667
3 *122:Y *277:CLK 85.3733333333
4 *100:CLK *461:12 149.373333333
5 *461:8 *461:10 298.706666667
6 *461:10 *131:CLK 490.706666667
7 *461:11 *263:CLK 490.706666667
8 *263:CLK *461:10 661.373333333
9 *461:11 *461:13 213.373333333
10 *461:11 *461:15 106.706666667
11 *461:15 *461:15 1536.04
12 *461:15 *461:17 266.706666667
13 *113:CLK *101:CLK 128.04

*END

*D_NET *438 960.04599

*CONN
*I *264:CLK I *L 9.37511
*I *135:CLK I *L 9.37511
*I *260:CLK I *L 9.37511
*I *132:CLK I *L 9.37511
*I *125:CLK I *L 9.37511
*I *256:CLK I *L 9.37511
*I *51:Y O *D BUFX4
*N *438:8 *C
*N *438:9 *C
*N *438:10 *C
*N *438:11 *C
*N *438:12 *C
*N *438:13 *C
*N *438:14 *C
*N *438:15 *C

*CAP
1 *264:CLK 9.37511
2 *135:CLK 9.37511
3 *260:CLK 9.37511
4 *132:CLK 9.37511
5 *125:CLK 9.37511
6 *256:CLK 9.37511
7 *51:Y 0.0
8 *438:8 185.288685
9 *438:9 92.648685
10 *438:10 231.608685
11 *438:11 52.569855
12 *438:12 197.109855
13 *438:13 65.709855
14 *438:14 13.149855
15 *438:15 65.709855

*RES
1 *135:CLK *132:CLK 1066.70666667
2 *264:CLK *135:CLK 533.373333333
3 *51:Y *256:CLK 512.04
4 *256:CLK *132:CLK 896.04
5 *125:CLK *438:8 448.04
6 *438:8 *51:Y 1386.70666667
7 *260:CLK *264:CLK 1066.70666667

*END

*D_NET *439 1002.220385

*CONN
*I *129:CLK I *L 9.37511
*I *171:CLK I *L 9.37511
*I *297:CLK I *L 9.37511
*I *133:CLK I *L 9.37511
*I *52:CLK I *L 9.37511
*I *173:CLK I *L 9.37511
*I *124:Y O *D BUFX4
*N *439:8 *C
*N *439:9 *C
*N *439:10 *C
*N *439:11 *C
*N *439:12 *C
*N *439:13 *C
*N *439:14 *C
*N *439:15 *C
*N *439:16 *C
*N *439:17 *C

*CAP
1 *129:CLK 9.37511
2 *171:CLK 9.37511
3 *297:CLK 9.37511
4 *133:CLK 9.37511
5 *52:CLK 9.37511
6 *173:CLK 9.37511
7 *124:Y 0.0
8 *439:8 14.63771
9 *439:9 101.912685
10 *439:10 138.968685
11 *439:11 120.440685
12 *439:12 138.968685
13 *439:13 78.849855
14 *439:14 78.849855
15 *439:15 10.521855
16 *439:16 197.109855
17 *439:17 65.709855

*RES
1 *133:CLK *124:Y 469.373333333
2 *124:Y *297:CLK 170.706666667
3 *171:CLK *133:CLK 469.373333333
4 *439:8 *133:CLK 1130.70666667
5 *173:CLK *52:CLK 554.706666667
6 *173:CLK *439:9 106.706666667
7 *173:CLK *439:10 64.04
8 *439:11 *173:CLK 490.706666667
9 *129:CLK *173:CLK 1194.70666667

*END

*D_NET *312 1092.45733

*CONN
*I *197:Y O *D OAI21X1
*I *255:A I *L 13.9855
*I *239:A I *L 13.9855
*I *126:A I *L 13.9855
*I *123:A I *L 13.9855
*N *312:6 *C
*N *312:7 *C
*N *312:8 *C
*N *312:9 *C
*N *312:10 *C
*N *312:11 *C
*N *312:12 *C
*N *312:13 *C

*CAP
1 *197:Y 0.0
2 *255:A 13.9855
3 *239:A 13.9855
4 *126:A 13.9855
5 *123:A 13.9855
6 *312:6 74.120685
7 *312:7 148.232685
8 *312:8 472.472685
9 *312:9 52.569855
10 *312:10 91.989855
11 *312:11 52.569855
12 *312:12 52.569855
13 *312:13 91.989855

*RES
1 *312:6 *255:A 149.373333333
2 *255:A *312:7 192.04
3 *312:7 *123:A 149.373333333
4 *312:8 *126:A 21.3733333333
5 *126:A *255:A 810.706666667
6 *312:9 *197:Y 64.04
7 *197:Y *126:A 2133.37333333
8 *239:A *197:Y 213.373333333

*END

*D_NET *400 1018.86246

*CONN
*I *106:A I *L 17.346
*I *155:A I *L 17.346
*I *110:A I *L 17.346
*I *247:A I *L 17.346
*I *194:A I *L 17.346
*I *123:Y O *D BUFX4
*N *400:7 *C
*N *400:8 *C
*N *400:9 *C
*N *400:10 *C
*N *400:11 *C
*N *400:12 *C
*N *400:13 *C
*N *400:14 *C
*N *400:15 *C
*N *400:16 *C
*N *400:17 *C

*CAP
1 *106:A 17.346
2 *155:A 17.346
3 *110:A 17.346
4 *247:A 17.346
5 *194:A 17.346
6 *123:Y 0.0
7 *400:7 14.63771
8 *400:8 14.63771
9 *400:9 14.63771
10 *400:10 83.384685
11 *400:11 157.496685
12 *400:12 111.176685
13 *400:13 13.149855
14 *400:14 10.521855
15 *400:15 65.709855
16 *400:16 183.969855
17 *400:17 262.809855

*RES
1 *110:A *400:7 21.3733333333
2 *110:A *400:7 64.04
3 *110:A *123:Y 128.04
4 *106:A *400:9 21.3733333333
5 *400:9 *400:10 384.04
6 *247:A *106:A 768.04
7 *155:A *194:A 469.373333333
8 *194:A *247:A 170.706666667

*END

*D_NET *401 610.585985

*CONN
*I *17:A I *L 17.346
*I *236:A I *L 17.346
*I *104:A I *L 17.346
*I *182:A I *L 17.346
*I *126:Y O *D BUFX4
*N *401:6 *C
*N *401:7 *C
*N *401:8 *C
*N *401:9 *C
*N *401:10 *C
*N *401:11 *C
*N *401:12 *C

*CAP
1 *17:A 17.346
2 *236:A 17.346
3 *104:A 17.346
4 *182:A 17.346
5 *126:Y 0.0
6 *401:6 208.32651
7 *401:7 14.63771
8 *401:8 9.272685
9 *401:9 9.272685
10 *401:10 194.552685
11 *401:11 13.149855
12 *401:12 91.989855

*RES
1 *236:A *401:10 64.04
2 *401:9 *401:7 1280.04
3 *401:7 *401:8 42.7066666667
4 *401:8 *126:Y 106.706666667
5 *104:A *236:A 1024.04
6 *182:A *104:A 170.706666667
7 *17:A *104:A 128.04

*END

*D_NET *398 698.2505

*CONN
*I *161:A I *L 17.346
*I *251:A I *L 17.346
*I *258:A I *L 17.346
*I *202:A I *L 17.346
*I *239:Y O *D BUFX4
*N *398:6 *C
*N *398:7 *C
*N *398:8 *C
*N *398:9 *C
*N *398:10 *C
*N *398:11 *C
*N *398:12 *C

*CAP
1 *161:A 17.346
2 *251:A 17.346
3 *258:A 17.346
4 *202:A 17.346
5 *239:Y 0.0
6 *398:6 14.63771
7 *398:7 148.232685
8 *398:8 111.176685
9 *398:9 13.149855
10 *398:10 52.569855
11 *398:11 13.149855
12 *398:12 275.949855

*RES
1 *161:A *398:6 21.3733333333
2 *398:6 *398:7 682.706666667
3 *398:7 *239:Y 64.04
4 *202:A *398:8 21.3733333333
5 *398:8 *398:6 512.04
6 *258:A *202:A 170.706666667
7 *251:A *398:9 21.3733333333

*END

*D_NET *399 723.522025

*CONN
*I *196:A I *L 17.346
*I *159:A I *L 17.346
*I *249:A I *L 17.346
*I *274:B I *L 14.3643
*I *255:Y O *D BUFX4
*N *399:6 *C
*N *399:7 *C
*N *399:8 *C
*N *399:9 *C
*N *399:10 *C
*N *399:11 *C
*N *399:12 *C
*N *399:13 *C
*N *399:14 *C

*CAP
1 *196:A 17.346
2 *159:A 17.346
3 *249:A 17.346
4 *274:B 14.3643
5 *255:Y 0.0
6 *399:6 14.63771
7 *399:7 14.63771
8 *399:8 46.328685
9 *399:9 55.592685
10 *399:10 157.496685
11 *399:11 250.136685
12 *399:12 26.289855
13 *399:13 26.289855
14 *399:14 65.709855

*RES
1 *274:B *255:Y 256.04
2 *255:Y *399:6 64.04
3 *249:A *399:7 149.373333333
4 *399:7 *399:8 256.04
5 *399:8 *274:B 64.04
6 *399:9 *399:10 42.7066666667
7 *399:10 *159:A 192.04
8 *159:A *399:7 917.373333333
9 *196:A *399:10 1301.37333333

*END

*D_NET *458 1346.536815

*CONN
*I *183:Y O *D NOR2X1
*I *20:A I *L 13.9855
*I *222:A I *L 13.9855
*I *200:A I *L 13.9855
*I *149:A I *L 13.9855
*N *458:6 *C
*N *458:7 *C
*N *458:8 *C
*N *458:9 *C
*N *458:10 *C
*N *458:11 *C
*N *458:12 *C
*N *458:13 *C

*CAP
1 *183:Y 0.0
2 *20:A 13.9855
3 *222:A 13.9855
4 *200:A 13.9855
5 *149:A 13.9855
6 *458:6 251.72651
7 *458:7 46.328685
8 *458:8 9.272685
9 *458:9 491.000685
10 *458:10 111.176685
11 *458:11 52.569855
12 *458:12 157.689855
13 *458:13 170.829855

*RES
1 *183:Y *149:A 170.706666667
2 *222:A *458:10 21.3733333333
3 *20:A *458:11 21.3733333333