*SPEF "IEEE 1481-2009"
*DESIGN "pic27ch"
*DATE "2019-05-12 02:54:54.091423"
*VENDOR "AUC_STUDENTS"
*PROGRAM "Def2Spef_Converter"
*VERSION "0.0"
*DESIGN_FLOW "PROJECT2_FLOW"
*DIVIDER /
*DELIMITER :
*BUS_DELIMITER <>
*T_UNIT 1 PS
*C_UNIT 1 FF
*R_UNIT 1 KOHM
*L_UNIT 1 UH

*NAME_MAP

*1 FILL_3_0_2
*2 FILL_3_0_1
*3 FILL_3_0_0
*4 FILL_5_0_0
*5 FILL_5_1_0
*6 FILL_5_1_1
*7 FILL_5_1_2
*8 NAND3X1_8
*9 NAND2X1_38
*10 INVX1_1
*11 OAI21X1_4
*12 NAND2X1_30
*13 NAND2X1_31
*14 NAND2X1_32
*15 NAND2X1_33
*16 NAND2X1_34
*17 NAND2X1_35
*18 NAND2X1_36
*19 NAND2X1_37
*20 FILL_4_1
*21 NAND2X1_12
*22 FILL_1_1_0
*23 FILL_1_1_1
*24 FILL_1_1_2
*25 NAND2X1_1
*26 NAND2X1_13
*27 NAND2X1_29
*28 NAND2X1_28
*29 NAND2X1_27
*30 NAND2X1_26
*31 NAND2X1_25
*32 NAND2X1_24
*33 NAND2X1_23
*34 NAND2X1_22
*35 NAND2X1_21
*36 NAND2X1_20
*37 NAND3X1_15
*38 NAND3X1_14
*39 NAND3X1_17
*40 NAND3X1_16
*41 NAND3X1_11
*42 NAND3X1_10
*43 NAND3X1_13
*44 NAND3X1_12
*45 NAND3X1_19
*46 NAND3X1_18
*47 FILL_3_1_2
*48 FILL_3_1_0
*49 FILL_3_1_1
*50 FILL_4_1_1
*51 FILL_6_1
*52 FILL_6_2
*53 FILL_2_1_2
*54 INVX1_2
*55 INVX1_3
*56 FILL_2_1_0
*57 INVX1_6
*58 INVX1_7
*59 INVX1_4
*60 INVX1_5
*61 INVX1_8
*62 INVX1_9
*63 NAND3X1_2
*64 FILL_1_0_1
*65 FILL_1_0_0
*66 FILL_1_0_2
*67 INVX1_17
*68 NAND2X1_8
*69 NAND2X1_9
*70 FILL_4_1_2
*71 NAND2X1_4
*72 NAND2X1_5
*73 NAND2X1_6
*74 NAND2X1_7
*75 INVX1_21
*76 NAND2X1_19
*77 NAND2X1_2
*78 NAND2X1_3
*79 AOI21X1_4
*80 AOI21X1_3
*81 AOI21X1_2
*82 AOI21X1_1
*83 AND2X2_12
*84 AND2X2_10
*85 AND2X2_11
*86 FILL_4_1_0
*87 FILL_2_0_2
*88 NAND3X1_9
*89 FILL_2_0_0
*90 FILL_2_0_1
*91 INVX1_28
*92 FILL_3_1
*93 FILL_1_2
*94 NAND3X1_5
*95 FILL_1_1
*96 NAND3X1_4
*97 INVX1_27
*98 INVX1_14
*99 INVX1_15
*100 INVX1_16
*101 NAND3X1_6
*102 INVX1_10
*103 INVX1_11
*104 INVX1_12
*105 INVX1_13
*106 NAND3X1_1
*107 INVX1_18
*108 INVX1_19
*109 AND2X2_9
*110 NOR2X1_1
*111 NOR2X1_3
*112 NOR2X1_2
*113 NOR2X1_5
*114 INVX1_23
*115 NOR2X1_7
*116 NOR2X1_6
*117 NAND3X1_20
*118 NOR2X1_8
*119 NAND3X1_22
*120 NAND3X1_23
*121 NAND3X1_24
*122 NOR2X1_4
*123 NAND2X1_16
*124 NAND2X1_17
*125 NAND2X1_14
*126 NAND2X1_15
*127 OAI21X1_3
*128 OAI21X1_2
*129 NAND2X1_10
*130 NAND2X1_11
*131 OAI21X1_9
*132 OAI21X1_8
*133 NAND3X1_21
*134 FILL_4_0_0
*135 FILL_4_0_1
*136 FILL_4_0_2
*137 BUFX2_7
*138 BUFX2_6
*139 BUFX2_5
*140 BUFX2_4
*141 BUFX2_3
*142 BUFX2_2
*143 BUFX2_1
*144 FILL_0_1_1
*145 FILL_0_1_0
*146 FILL_2_1_1
*147 FILL_0_1_2
*148 NAND2X1_18
*149 FILL_5_1
*150 OAI21X1_7
*151 OAI21X1_6
*152 OAI21X1_10
*153 FILL_5_0_1
*154 OAI21X1_5
*155 FILL_5_0_2
*156 OAI21X1_17
*157 OAI21X1_16
*158 OAI21X1_15
*159 OAI21X1_14
*160 OAI21X1_13
*161 OAI21X1_12
*162 OAI21X1_11
*163 AOI22X1_13
*164 INVX1_32
*165 INVX1_33
*166 INVX1_30
*167 INVX1_31
*168 AOI22X1_16
*169 AOI22X1_10
*170 AOI22X1_14
*171 AOI22X1_15
*172 AOI22X1_11
*173 OAI21X1_1
*174 INVX1_34
*175 OAI21X1_18
*176 OR2X2_1
*177 OAI22X1_1
*178 OAI22X1_2
*179 OAI22X1_3
*180 OAI22X1_4
*181 AND2X2_4
*182 AND2X2_5
*183 AND2X2_6
*184 AND2X2_7
*185 INVX1_29
*186 AND2X2_1
*187 AND2X2_2
*188 AND2X2_3
*189 INVX1_25
*190 INVX1_24
*191 NAND3X1_7
*192 INVX1_26
*193 AND2X2_8
*194 INVX1_20
*195 NAND3X1_3
*196 INVX1_22
*197 AOI22X1_8
*198 AOI22X1_9
*199 AOI22X1_12
*200 AOI22X1_1
*201 AOI22X1_2
*202 AOI22X1_3
*203 AOI22X1_4
*204 AOI22X1_5
*205 AOI22X1_6
*206 AOI22X1_7
*207 FILL_0_0_0
*208 FILL_0_0_1
*209 FILL_0_0_2
*210 out421
*211 _41_
*212 _10_
*213 _120_
*214 Ckt432.X1<6>
*215 _79_
*216 in47
*217 _94_
*218 in40
*219 in43
*220 _1_
*221 in60
*222 _49_
*223 _100_
*224 _125_
*225 _34_
*226 _107_
*227 _115_
*228 _130_
*229 _26_
*230 Ckt432.X2<4>
*231 Ckt432.I<7>
*232 _18_
*233 _8_
*234 out223
*235 _71_
*236 _55_
*237 _109_
*238 _66_
*239 _42_
*240 _17_
*241 _129_
*242 _93_
*243 in115
*244 _78_
*245 out432
*246 out431
*247 out430
*248 in30
*249 in34
*250 _32_
*251 in37
*252 _124_
*253 _90_
*254 _6_
*255 _116_
*256 _131_
*257 Ckt432.I<4>
*258 _37_
*259 Ckt432.X2<3>
*260 _9_
*261 _70_
*262 _27_
*263 _108_
*264 _67_
*265 _54_
*266 _77_
*267 _28_
*268 _80_
*269 _60_
*270 _102_
*271 in21
*272 in27
*273 _96_
*274 _3_
*275 in24
*276 _114_
*277 Ckt432.X1<8>
*278 _33_
*279 out329
*280 _20_
*281 Ckt432.X2<2>
*282 _68_
*283 _15_
*284 Ckt432.X1<7>
*285 _57_
*286 _12_
*287 _47_
*288 _81_
*289 _76_
*290 _11_
*291 _29_
*292 _61_
*293 Ckt432.X2<1>
*294 Ckt432.I<2>
*295 _48_
*296 in17
*297 in14
*298 _0_
*299 _101_
*300 in11
*301 _95_
*302 in95
*303 in92
*304 _126_
*305 _35_
*306 _123_
*307 in86
*308 _19_
*309 in99
*310 _56_
*311 _69_
*312 Ckt432.X1<0>
*313 _40_
*314 _122_
*315 _51_
*316 _62_
*317 Ckt432.I<8>
*318 _14_
*319 _38_
*320 Ckt432.X2<8>
*321 _86_
*322 Ckt432.I<3>
*323 Ckt432.X2<0>
*324 _59_
*325 _112_
*326 _105_
*327 in82
*328 _99_
*329 _22_
*330 _4_
*331 in89
*332 _45_
*333 in108
*334 _30_
*335 in102
*336 _75_
*337 _84_
*338 in105
*339 Ckt432.X1<1>
*340 _50_
*341 _74_
*342 _97_
*343 _63_
*344 _2_
*345 _87_
*346 _128_
*347 _103_
*348 _106_
*349 _58_
*350 _113_
*351 Ckt432.I<0>
*352 _23_
*353 Ckt432.X2<7>
*354 _121_
*355 _5_
*356 in79
*357 in112
*358 _98_
*359 in76
*360 in73
*361 out370
*362 Ckt432.X1<2>
*363 Ckt432.I<5>
*364 _89_
*365 _46_
*366 in50
*367 _13_
*368 _119_
*369 _92_
*370 _43_
*371 _64_
*372 Ckt432.X1<4>
*373 _16_
*374 _110_
*375 Ckt432.I<1>
*376 _21_
*377 Ckt432.X2<6>
*378 _117_
*379 in69
*380 in66
*381 in63
*382 _36_
*383 _24_
*384 _88_
*385 _53_
*386 _73_
*387 _104_
*388 Ckt432.X1<3>
*389 _39_
*390 in8
*391 _52_
*392 _65_
*393 in4
*394 Ckt432.X1<5>
*395 _91_
*396 in1
*397 _111_
*398 _85_
*399 _83_
*400 _7_
*401 Ckt432.X2<5>
*402 _127_
*403 in53
*404 _31_
*405 in56
*406 Ckt432.I<6>
*407 _82_
*408 _118_
*409 _25_
*410 _44_
*411 _72_

*PORTS
*1 O
*2 I
*3 I
*4 I
*5 I
*6 I
*7 I
*8 I
*9 I
*10 I
*11 I
*12 I
*13 O
*14 I
*15 I
*16 I
*17 O
*18 I
*19 I
*20 I
*21 I
*22 I
*23 O
*24 O
*25 I
*26 I
*27 O
*28 I
*29 I
*30 I
*31 I
*32 I
*33 I
*34 I
*35 I
*36 I
*37 I
*38 I
*39 I
*40 I
*41 I
*42 O
*43 I
*44 I
*45 I

*D_NET *298 
*CONN
*I *168:A I *L 0.0173718
*I *171:A I *L 0.0173718
*I *170:A I *L 0.0173718
*I *163:A I *L 0.0173718
*I *199:A I *L 0.0173718
*I *172:A I *L 0.0173718
*I *169:A I *L 0.0173718
*I *198:A I *L 0.0173718
*I *197:A I *L 0.0173718
*I *106:Y O *D *106
*I *143:A I *L 0.00933171
*CAP
*RES
*END

*D_NET *234 
*CONN
*P *234 O
*I *143:Y O *D *143
*CAP
*RES
*END

*D_NET *220 
*CONN
*I *168:C I *L 0.0182378
*I *171:C I *L 0.0182378
*I *170:C I *L 0.0182378
*I *163:C I *L 0.0182378
*I *199:C I *L 0.0182378
*I *172:C I *L 0.0182378
*I *169:C I *L 0.0182378
*I *198:C I *L 0.0182378
*I *197:C I *L 0.0182378
*I *101:Y O *D *101
*I *142:A I *L 0.00933171
*CAP
*RES
*END

*D_NET *279 
*CONN
*P *279 O
*I *142:Y O *D *142
*CAP
*RES
*END

*D_NET *344 
*CONN
*I *16:A I *L 0.0125
*I *15:A I *L 0.0125
*I *14:A I *L 0.0125
*I *13:A I *L 0.0125
*I *12:A I *L 0.0125
*I *27:A I *L 0.0125
*I *28:A I *L 0.0125
*I *29:A I *L 0.0125
*I *30:A I *L 0.0125
*I *41:Y O *D *41
*I *141:A I *L 0.00933171
*CAP
*RES
*END

*D_NET *361 
*CONN
*P *361 O
*I *141:Y O *D *141
*CAP
*RES
*END

*D_NET *274 
*CONN
*I *80:Y O *D *80
*I *140:A I *L 0.00933171
*CAP
*RES
*END

*D_NET *210 
*CONN
*P *210 O
*I *140:Y O *D *140
*CAP
*RES
*END

*D_NET *330 
*CONN
*I *185:Y O *D *185
*I *139:A I *L 0.00933171
*CAP
*RES
*END

*D_NET *247 
*CONN
*P *247 O
*I *139:Y O *D *139
*CAP
*RES
*END

*D_NET *355 
*CONN
*I *119:Y O *D *119
*I *138:A I *L 0.00933171
*CAP
*RES
*END

*D_NET *246 
*CONN
*P *246 O
*I *138:Y O *D *138
*CAP
*RES
*END

*D_NET *254 
*CONN
*I *121:Y O *D *121
*I *137:A I *L 0.00933171
*CAP
*RES
*END

*D_NET *245 
*CONN
*P *245 O
*I *137:Y O *D *137
*CAP
*RES
*END

*D_NET *359 
*CONN
*P *359 I
*I *169:B I *L 0.0179972
*I *10:A I *L 0.00932456
*CAP
*RES
*END

*D_NET *400 
*CONN
*I *78:B I *L 0.0129035
*I *82:A I *L 0.0173593
*I *10:Y O *D *10
*CAP
*RES
*END

*D_NET *333 
*CONN
*P *333 I
*I *44:A I *L 0.0158812
*I *109:A I *L 0.0129068
*I *96:A I *L 0.0158812
*I *25:A I *L 0.0125
*I *54:A I *L 0.00932456
*CAP
*RES
*END

*D_NET *233 
*CONN
*I *177:B I *L 0.0182258
*I *54:Y O *D *54
*CAP
*RES
*END

*D_NET *302 
*CONN
*P *302 I
*I *43:A I *L 0.0158812
*I *88:A I *L 0.0158812
*I *94:A I *L 0.0158812
*I *77:A I *L 0.0125
*I *55:A I *L 0.00932456
*CAP
*RES
*END

*D_NET *260 
*CONN
*I *177:D I *L 0.0186431
*I *55:Y O *D *55
*CAP
*RES
*END

*D_NET *335 
*CONN
*P *335 I
*I *197:B I *L 0.0179972
*I *102:A I *L 0.00932456
*I *177:A I *L 0.0173495
*CAP
*RES
*END

*D_NET *331 
*CONN
*P *331 I
*I *198:B I *L 0.0179972
*I *103:A I *L 0.00932456
*I *177:C I *L 0.0179862
*CAP
*RES
*END

*D_NET *212 
*CONN
*I *82:C I *L 0.0150799
*I *177:Y O *D *177
*CAP
*RES
*END

*D_NET *327 
*CONN
*P *327 I
*I *38:A I *L 0.0158812
*I *76:A I *L 0.0125
*I *130:A I *L 0.0125
*I *78:A I *L 0.0125
*I *82:B I *L 0.0179733
*CAP
*RES
*END

*D_NET *290 
*CONN
*I *106:B I *L 0.0159247
*I *82:Y O *D *82
*CAP
*RES
*END

*D_NET *251 
*CONN
*P *251 I
*I *163:B I *L 0.0179972
*I *59:A I *L 0.00932456
*CAP
*RES
*END

*D_NET *286 
*CONN
*I *73:B I *L 0.0129035
*I *200:A I *L 0.0173718
*I *59:Y O *D *59
*CAP
*RES
*END

*D_NET *275 
*CONN
*P *275 I
*I *170:B I *L 0.0179972
*I *60:A I *L 0.00932456
*CAP
*RES
*END

*D_NET *367 
*CONN
*I *74:B I *L 0.0129035
*I *200:C I *L 0.0182378
*I *60:Y O *D *60
*CAP
*RES
*END

*D_NET *219 
*CONN
*P *219 I
*I *39:A I *L 0.0158812
*I *33:A I *L 0.0125
*I *188:A I *L 0.0129068
*I *73:A I *L 0.0125
*I *200:B I *L 0.0179972
*CAP
*RES
*END

*D_NET *248 
*CONN
*P *248 I
*I *46:A I *L 0.0158812
*I *36:A I *L 0.0125
*I *187:A I *L 0.0129068
*I *74:A I *L 0.0125
*I *200:D I *L 0.0186552
*CAP
*RES
*END

*D_NET *318 
*CONN
*I *195:A I *L 0.0158812
*I *186:A I *L 0.0129068
*I *200:Y O *D *200
*CAP
*RES
*END

*D_NET *381 
*CONN
*P *381 I
*I *172:B I *L 0.0179972
*I *57:A I *L 0.00932456
*CAP
*RES
*END

*D_NET *283 
*CONN
*I *71:B I *L 0.0129035
*I *201:A I *L 0.0173718
*I *57:Y O *D *57
*CAP
*RES
*END

*D_NET *366 
*CONN
*P *366 I
*I *199:B I *L 0.0179972
*I *58:A I *L 0.00932456
*CAP
*RES
*END

*D_NET *373 
*CONN
*I *72:B I *L 0.0129035
*I *201:C I *L 0.0182378
*I *58:Y O *D *58
*CAP
*RES
*END

*D_NET *379 
*CONN
*P *379 I
*I *37:A I *L 0.0158812
*I *42:A I *L 0.0158812
*I *181:A I *L 0.0129068
*I *71:A I *L 0.0125
*I *201:B I *L 0.0179972
*CAP
*RES
*END

*D_NET *405 
*CONN
*P *405 I
*I *40:A I *L 0.0158812
*I *31:A I *L 0.0125
*I *182:A I *L 0.0129068
*I *72:A I *L 0.0125
*I *201:D I *L 0.0186552
*CAP
*RES
*END

*D_NET *240 
*CONN
*I *195:B I *L 0.0159247
*I *186:B I *L 0.0125119
*I *201:Y O *D *201
*CAP
*RES
*END

*D_NET *232 
*CONN
*I *106:C I *L 0.0164926
*I *186:Y O *D *186
*CAP
*RES
*END

*D_NET *396 
*CONN
*P *396 I
*I *168:B I *L 0.0179972
*I *61:A I *L 0.00932456
*CAP
*RES
*END

*D_NET *308 
*CONN
*I *69:B I *L 0.0129035
*I *202:A I *L 0.0173718
*I *61:Y O *D *61
*CAP
*RES
*END

*D_NET *300 
*CONN
*P *300 I
*I *171:B I *L 0.0179972
*I *62:A I *L 0.00932456
*CAP
*RES
*END

*D_NET *280 
*CONN
*I *68:B I *L 0.0129035
*I *202:C I *L 0.0182378
*I *62:Y O *D *62
*CAP
*RES
*END

*D_NET *393 
*CONN
*P *393 I
*I *117:A I *L 0.0158812
*I *84:A I *L 0.0129068
*I *184:A I *L 0.0129068
*I *69:A I *L 0.0125
*I *202:B I *L 0.0179972
*CAP
*RES
*END

*D_NET *296 
*CONN
*P *296 I
*I *45:A I *L 0.0158812
*I *85:A I *L 0.0129068
*I *193:A I *L 0.0129068
*I *68:A I *L 0.0125
*I *202:D I *L 0.0186552
*CAP
*RES
*END

*D_NET *376 
*CONN
*I *195:C I *L 0.0164926
*I *106:A I *L 0.0158812
*I *202:Y O *D *202
*CAP
*RES
*END

*D_NET *329 
*CONN
*I *25:B I *L 0.0129035
*I *102:Y O *D *102
*CAP
*RES
*END

*D_NET *352 
*CONN
*I *173:C I *L 0.0129138
*I *63:A I *L 0.0158812
*I *25:Y O *D *25
*CAP
*RES
*END

*D_NET *383 
*CONN
*I *77:B I *L 0.0129035
*I *103:Y O *D *103
*CAP
*RES
*END

*D_NET *409 
*CONN
*I *128:C I *L 0.0129138
*I *63:B I *L 0.0159247
*I *77:Y O *D *77
*CAP
*RES
*END

*D_NET *229 
*CONN
*I *127:C I *L 0.0129138
*I *63:C I *L 0.0164926
*I *78:Y O *D *78
*CAP
*RES
*END

*D_NET *262 
*CONN
*I *131:A I *L 0.017346
*I *132:A I *L 0.017346
*I *150:A I *L 0.017346
*I *151:A I *L 0.017346
*I *154:A I *L 0.017346
*I *11:A I *L 0.017346
*I *127:A I *L 0.017346
*I *128:A I *L 0.017346
*I *173:A I *L 0.017346
*I *63:Y O *D *63
*CAP
*RES
*END

*D_NET *267 
*CONN
*I *131:B I *L 0.0182038
*I *132:B I *L 0.0182038
*I *150:B I *L 0.0182038
*I *151:B I *L 0.0182038
*I *154:B I *L 0.0182038
*I *11:B I *L 0.0182038
*I *127:B I *L 0.0182038
*I *128:B I *L 0.0182038
*I *173:B I *L 0.0182038
*I *195:Y O *D *195
*CAP
*RES
*END

*D_NET *312 
*CONN
*I *109:B I *L 0.0125119
*I *96:B I *L 0.0159247
*I *173:Y O *D *173
*CAP
*RES
*END

*D_NET *339 
*CONN
*I *88:C I *L 0.0164926
*I *94:B I *L 0.0159247
*I *128:Y O *D *128
*CAP
*RES
*END

*D_NET *362 
*CONN
*I *76:B I *L 0.0129035
*I *130:B I *L 0.0129035
*I *127:Y O *D *127
*CAP
*RES
*END

*D_NET *291 
*CONN
*I *11:C I *L 0.0129138
*I *71:Y O *D *71
*CAP
*RES
*END

*D_NET *388 
*CONN
*I *42:C I *L 0.0164926
*I *181:B I *L 0.0125119
*I *11:Y O *D *11
*CAP
*RES
*END

*D_NET *334 
*CONN
*I *154:C I *L 0.0129138
*I *72:Y O *D *72
*CAP
*RES
*END

*D_NET *372 
*CONN
*I *31:B I *L 0.0129035
*I *182:B I *L 0.0125119
*I *154:Y O *D *154
*CAP
*RES
*END

*D_NET *404 
*CONN
*I *151:C I *L 0.0129138
*I *73:Y O *D *73
*CAP
*RES
*END

*D_NET *394 
*CONN
*I *33:B I *L 0.0129035
*I *188:B I *L 0.0125119
*I *151:Y O *D *151
*CAP
*RES
*END

*D_NET *250 
*CONN
*I *150:C I *L 0.0129138
*I *74:Y O *D *74
*CAP
*RES
*END

*D_NET *214 
*CONN
*I *35:B I *L 0.0129035
*I *187:B I *L 0.0125119
*I *150:Y O *D *150
*CAP
*RES
*END

*D_NET *278 
*CONN
*I *132:C I *L 0.0129138
*I *68:Y O *D *68
*CAP
*RES
*END

*D_NET *284 
*CONN
*I *85:B I *L 0.0125119
*I *193:B I *L 0.0125119
*I *132:Y O *D *132
*CAP
*RES
*END

*D_NET *225 
*CONN
*I *131:C I *L 0.0129138
*I *69:Y O *D *69
*CAP
*RES
*END

*D_NET *277 
*CONN
*I *84:B I *L 0.0125119
*I *184:B I *L 0.0125119
*I *131:Y O *D *131
*CAP
*RES
*END

*D_NET *357 
*CONN
*P *357 I
*I *197:D I *L 0.0186552
*I *104:A I *L 0.00932456
*CAP
*RES
*END

*D_NET *305 
*CONN
*I *96:C I *L 0.0164926
*I *104:Y O *D *104
*CAP
*RES
*END

*D_NET *382 
*CONN
*I *152:C I *L 0.0129138
*I *191:A I *L 0.0158812
*I *129:A I *L 0.0125
*I *96:Y O *D *96
*CAP
*RES
*END

*D_NET *309 
*CONN
*P *309 I
*I *198:D I *L 0.0186552
*I *105:A I *L 0.00932456
*CAP
*RES
*END

*D_NET *258 
*CONN
*I *94:C I *L 0.0164926
*I *105:Y O *D *105
*CAP
*RES
*END

*D_NET *319 
*CONN
*I *162:C I *L 0.0129138
*I *191:B I *L 0.0159247
*I *129:B I *L 0.0129035
*I *94:Y O *D *94
*CAP
*RES
*END

*D_NET *389 
*CONN
*I *112:B I *L 0.0150643
*I *129:Y O *D *129
*CAP
*RES
*END

*D_NET *313 
*CONN
*I *110:B I *L 0.0150643
*I *130:Y O *D *130
*CAP
*RES
*END

*D_NET *307 
*CONN
*P *307 I
*I *169:D I *L 0.0186552
*I *110:A I *L 0.0144193
*CAP
*RES
*END

*D_NET *211 
*CONN
*I *194:A I *L 0.00932456
*I *112:A I *L 0.0144193
*I *110:Y O *D *110
*CAP
*RES
*END

*D_NET *239 
*CONN
*I *101:B I *L 0.0159247
*I *112:Y O *D *112
*CAP
*RES
*END

*D_NET *249 
*CONN
*P *249 I
*I *170:D I *L 0.0186552
*I *98:A I *L 0.00932456
*CAP
*RES
*END

*D_NET *370 
*CONN
*I *126:A I *L 0.0125
*I *203:B I *L 0.0179972
*I *98:Y O *D *98
*CAP
*RES
*END

*D_NET *216 
*CONN
*P *216 I
*I *163:D I *L 0.0186552
*I *99:A I *L 0.00932456
*CAP
*RES
*END

*D_NET *410 
*CONN
*I *125:A I *L 0.0125
*I *203:C I *L 0.0182378
*I *99:Y O *D *99
*CAP
*RES
*END

*D_NET *332 
*CONN
*I *126:B I *L 0.0129035
*I *203:A I *L 0.0173718
*I *187:Y O *D *187
*CAP
*RES
*END

*D_NET *365 
*CONN
*I *125:B I *L 0.0129035
*I *203:D I *L 0.0186552
*I *188:Y O *D *188
*CAP
*RES
*END

*D_NET *287 
*CONN
*I *8:A I *L 0.0158812
*I *183:A I *L 0.0129068
*I *203:Y O *D *203
*CAP
*RES
*END

*D_NET *221 
*CONN
*P *221 I
*I *199:D I *L 0.0186552
*I *100:A I *L 0.00932456
*CAP
*RES
*END

*D_NET *295 
*CONN
*I *26:A I *L 0.0125
*I *204:C I *L 0.0182378
*I *100:Y O *D *100
*CAP
*RES
*END

*D_NET *360 
*CONN
*P *360 I
*I *172:D I *L 0.0186552
*I *67:A I *L 0.00932456
*CAP
*RES
*END

*D_NET *222 
*CONN
*I *21:A I *L 0.0125
*I *204:B I *L 0.0179972
*I *67:Y O *D *67
*CAP
*RES
*END

*D_NET *340 
*CONN
*I *21:B I *L 0.0129035
*I *204:A I *L 0.0173718
*I *181:Y O *D *181
*CAP
*RES
*END

*D_NET *315 
*CONN
*I *26:B I *L 0.0129035
*I *204:D I *L 0.0186552
*I *182:Y O *D *182
*CAP
*RES
*END

*D_NET *391 
*CONN
*I *8:B I *L 0.0159247
*I *183:B I *L 0.0125119
*I *204:Y O *D *204
*CAP
*RES
*END

*D_NET *385 
*CONN
*I *101:C I *L 0.0164926
*I *183:Y O *D *183
*CAP
*RES
*END

*D_NET *390 
*CONN
*P *390 I
*I *168:D I *L 0.0186552
*I *107:A I *L 0.00932456
*CAP
*RES
*END

*D_NET *265 
*CONN
*I *124:A I *L 0.0125
*I *205:B I *L 0.0179972
*I *107:Y O *D *107
*CAP
*RES
*END

*D_NET *271 
*CONN
*P *271 I
*I *171:D I *L 0.0186552
*I *108:A I *L 0.00932456
*CAP
*RES
*END

*D_NET *236 
*CONN
*I *123:A I *L 0.0125
*I *205:C I *L 0.0182378
*I *108:Y O *D *108
*CAP
*RES
*END

*D_NET *310 
*CONN
*I *124:B I *L 0.0129035
*I *205:A I *L 0.0173718
*I *184:Y O *D *184
*CAP
*RES
*END

*D_NET *285 
*CONN
*I *123:B I *L 0.0129035
*I *205:D I *L 0.0186552
*I *193:Y O *D *193
*CAP
*RES
*END

*D_NET *349 
*CONN
*I *8:C I *L 0.0164926
*I *101:A I *L 0.0158812
*I *205:Y O *D *205
*CAP
*RES
*END

*D_NET *324 
*CONN
*I *161:C I *L 0.0129138
*I *191:C I *L 0.0164926
*I *194:Y O *D *194
*CAP
*RES
*END

*D_NET *269 
*CONN
*I *175:A I *L 0.017346
*I *156:A I *L 0.017346
*I *157:A I *L 0.017346
*I *158:A I *L 0.017346
*I *159:A I *L 0.017346
*I *160:A I *L 0.017346
*I *161:A I *L 0.017346
*I *162:A I *L 0.017346
*I *152:A I *L 0.017346
*I *191:Y O *D *191
*CAP
*RES
*END

*D_NET *292 
*CONN
*I *175:B I *L 0.0182038
*I *156:B I *L 0.0182038
*I *157:B I *L 0.0182038
*I *158:B I *L 0.0182038
*I *159:B I *L 0.0182038
*I *160:B I *L 0.0182038
*I *161:B I *L 0.0182038
*I *162:B I *L 0.0182038
*I *152:B I *L 0.0182038
*I *8:Y O *D *8
*CAP
*RES
*END

*D_NET *323 
*CONN
*I *75:A I *L 0.00932456
*I *152:Y O *D *152
*CAP
*RES
*END

*D_NET *293 
*CONN
*I *88:B I *L 0.0159247
*I *162:Y O *D *162
*CAP
*RES
*END

*D_NET *281 
*CONN
*I *148:A I *L 0.0125
*I *161:Y O *D *161
*CAP
*RES
*END

*D_NET *316 
*CONN
*I *160:C I *L 0.0129138
*I *21:Y O *D *21
*CAP
*RES
*END

*D_NET *259 
*CONN
*I *42:B I *L 0.0159247
*I *160:Y O *D *160
*CAP
*RES
*END

*D_NET *343 
*CONN
*I *159:C I *L 0.0129138
*I *26:Y O *D *26
*CAP
*RES
*END

*D_NET *230 
*CONN
*I *32:A I *L 0.0125
*I *159:Y O *D *159
*CAP
*RES
*END

*D_NET *371 
*CONN
*I *158:C I *L 0.0129138
*I *125:Y O *D *125
*CAP
*RES
*END

*D_NET *401 
*CONN
*I *34:A I *L 0.0125
*I *158:Y O *D *158
*CAP
*RES
*END

*D_NET *392 
*CONN
*I *157:C I *L 0.0129138
*I *126:Y O *D *126
*CAP
*RES
*END

*D_NET *377 
*CONN
*I *35:A I *L 0.0125
*I *157:Y O *D *157
*CAP
*RES
*END

*D_NET *238 
*CONN
*I *156:C I *L 0.0129138
*I *123:Y O *D *123
*CAP
*RES
*END

*D_NET *353 
*CONN
*I *97:A I *L 0.00932456
*I *156:Y O *D *156
*CAP
*RES
*END

*D_NET *264 
*CONN
*I *175:C I *L 0.0129138
*I *124:Y O *D *124
*CAP
*RES
*END

*D_NET *320 
*CONN
*I *192:A I *L 0.00932456
*I *175:Y O *D *175
*CAP
*RES
*END

*D_NET *282 
*CONN
*I *111:B I *L 0.0150643
*I *75:Y O *D *75
*CAP
*RES
*END

*D_NET *243 
*CONN
*P *243 I
*I *30:B I *L 0.0129035
*I *111:A I *L 0.0144193
*CAP
*RES
*END

*D_NET *311 
*CONN
*I *81:A I *L 0.0173593
*I *111:Y O *D *111
*CAP
*RES
*END

*D_NET *261 
*CONN
*I *81:B I *L 0.0179733
*I *109:Y O *D *109
*CAP
*RES
*END

*D_NET *235 
*CONN
*I *178:B I *L 0.0182258
*I *88:Y O *D *88
*CAP
*RES
*END

*D_NET *303 
*CONN
*P *303 I
*I *28:B I *L 0.0129035
*I *196:A I *L 0.00932456
*CAP
*RES
*END

*D_NET *411 
*CONN
*I *148:B I *L 0.0129035
*I *196:Y O *D *196
*CAP
*RES
*END

*D_NET *386 
*CONN
*I *178:D I *L 0.0186431
*I *148:Y O *D *148
*CAP
*RES
*END

*D_NET *341 
*CONN
*I *178:C I *L 0.0179862
*I *76:Y O *D *76
*CAP
*RES
*END

*D_NET *338 
*CONN
*P *338 I
*I *29:B I *L 0.0129035
*I *178:A I *L 0.0173495
*CAP
*RES
*END

*D_NET *336 
*CONN
*I *81:C I *L 0.0150799
*I *178:Y O *D *178
*CAP
*RES
*END

*D_NET *289 
*CONN
*I *41:B I *L 0.0159247
*I *81:Y O *D *81
*CAP
*RES
*END

*D_NET *218 
*CONN
*P *218 I
*I *14:B I *L 0.0129035
*I *114:A I *L 0.00932456
*CAP
*RES
*END

*D_NET *266 
*CONN
*I *36:B I *L 0.0129035
*I *114:Y O *D *114
*CAP
*RES
*END

*D_NET *244 
*CONN
*I *179:B I *L 0.0182258
*I *36:Y O *D *36
*CAP
*RES
*END

*D_NET *215 
*CONN
*I *179:A I *L 0.0173495
*I *35:Y O *D *35
*CAP
*RES
*END

*D_NET *403 
*CONN
*P *403 I
*I *13:B I *L 0.0129035
*I *190:A I *L 0.00932456
*CAP
*RES
*END

*D_NET *268 
*CONN
*I *34:B I *L 0.0129035
*I *190:Y O *D *190
*CAP
*RES
*END

*D_NET *288 
*CONN
*I *179:C I *L 0.0179862
*I *34:Y O *D *34
*CAP
*RES
*END

*D_NET *407 
*CONN
*I *179:D I *L 0.0186431
*I *33:Y O *D *33
*CAP
*RES
*END

*D_NET *399 
*CONN
*I *122:B I *L 0.0150643
*I *179:Y O *D *179
*CAP
*RES
*END

*D_NET *337 
*CONN
*I *180:B I *L 0.0182258
*I *42:Y O *D *42
*CAP
*RES
*END

*D_NET *380 
*CONN
*P *380 I
*I *12:B I *L 0.0129035
*I *189:A I *L 0.00932456
*CAP
*RES
*END

*D_NET *398 
*CONN
*I *32:B I *L 0.0129035
*I *189:Y O *D *189
*CAP
*RES
*END

*D_NET *321 
*CONN
*I *180:D I *L 0.0186431
*I *32:Y O *D *32
*CAP
*RES
*END

*D_NET *345 
*CONN
*I *180:C I *L 0.0179862
*I *31:Y O *D *31
*CAP
*RES
*END

*D_NET *356 
*CONN
*P *356 I
*I *27:B I *L 0.0129035
*I *180:A I *L 0.0173495
*CAP
*RES
*END

*D_NET *384 
*CONN
*I *122:A I *L 0.0144193
*I *180:Y O *D *180
*CAP
*RES
*END

*D_NET *364 
*CONN
*I *41:C I *L 0.0164926
*I *122:Y O *D *122
*CAP
*RES
*END

*D_NET *253 
*CONN
*I *113:B I *L 0.0150643
*I *192:Y O *D *192
*CAP
*RES
*END

*D_NET *297 
*CONN
*P *297 I
*I *16:B I *L 0.0129035
*I *113:A I *L 0.0144193
*CAP
*RES
*END

*D_NET *395 
*CONN
*I *206:A I *L 0.0173718
*I *113:Y O *D *113
*CAP
*RES
*END

*D_NET *369 
*CONN
*I *206:B I *L 0.0179972
*I *84:Y O *D *84
*CAP
*RES
*END

*D_NET *242 
*CONN
*I *116:B I *L 0.0150643
*I *97:Y O *D *97
*CAP
*RES
*END

*D_NET *272 
*CONN
*P *272 I
*I *15:B I *L 0.0129035
*I *116:A I *L 0.0144193
*CAP
*RES
*END

*D_NET *217 
*CONN
*I *206:C I *L 0.0182378
*I *116:Y O *D *116
*CAP
*RES
*END

*D_NET *301 
*CONN
*I *206:D I *L 0.0186552
*I *85:Y O *D *85
*CAP
*RES
*END

*D_NET *273 
*CONN
*I *41:A I *L 0.0158812
*I *206:Y O *D *206
*CAP
*RES
*END

*D_NET *342 
*CONN
*I *44:B I *L 0.0159247
*I *30:Y O *D *30
*CAP
*RES
*END

*D_NET *358 
*CONN
*I *44:C I *L 0.0164926
*I *197:Y O *D *197
*CAP
*RES
*END

*D_NET *351 
*CONN
*I *9:A I *L 0.0125
*I *44:Y O *D *44
*CAP
*RES
*END

*D_NET *328 
*CONN
*I *43:B I *L 0.0159247
*I *29:Y O *D *29
*CAP
*RES
*END

*D_NET *223 
*CONN
*I *43:C I *L 0.0164926
*I *198:Y O *D *198
*CAP
*RES
*END

*D_NET *375 
*CONN
*I *164:A I *L 0.00932456
*I *9:B I *L 0.0129035
*I *43:Y O *D *43
*CAP
*RES
*END

*D_NET *299 
*CONN
*I *38:B I *L 0.0159247
*I *28:Y O *D *28
*CAP
*RES
*END

*D_NET *270 
*CONN
*I *38:C I *L 0.0164926
*I *169:Y O *D *169
*CAP
*RES
*END

*D_NET *294 
*CONN
*I *120:A I *L 0.0158812
*I *176:B I *L 0.0143643
*I *19:A I *L 0.0125
*I *38:Y O *D *38
*CAP
*RES
*END

*D_NET *347 
*CONN
*I *37:B I *L 0.0159247
*I *27:Y O *D *27
*CAP
*RES
*END

*D_NET *387 
*CONN
*I *37:C I *L 0.0164926
*I *172:Y O *D *172
*CAP
*RES
*END

*D_NET *322 
*CONN
*I *167:A I *L 0.00932456
*I *19:B I *L 0.0129035
*I *37:Y O *D *37
*CAP
*RES
*END

*D_NET *326 
*CONN
*I *40:B I *L 0.0159247
*I *12:Y O *D *12
*CAP
*RES
*END

*D_NET *348 
*CONN
*I *40:C I *L 0.0164926
*I *199:Y O *D *199
*CAP
*RES
*END

*D_NET *257 
*CONN
*I *133:B I *L 0.0159247
*I *17:A I *L 0.0125
*I *40:Y O *D *40
*CAP
*RES
*END

*D_NET *226 
*CONN
*I *39:B I *L 0.0159247
*I *13:Y O *D *13
*CAP
*RES
*END

*D_NET *263 
*CONN
*I *39:C I *L 0.0164926
*I *163:Y O *D *163
*CAP
*RES
*END

*D_NET *363 
*CONN
*I *174:A I *L 0.00932456
*I *83:B I *L 0.0125119
*I *17:B I *L 0.0129035
*I *39:Y O *D *39
*CAP
*RES
*END

*D_NET *237 
*CONN
*I *46:B I *L 0.0159247
*I *14:Y O *D *14
*CAP
*RES
*END

*D_NET *374 
*CONN
*I *46:C I *L 0.0164926
*I *170:Y O *D *170
*CAP
*RES
*END

*D_NET *406 
*CONN
*I *79:B I *L 0.0179733
*I *83:A I *L 0.0129068
*I *18:A I *L 0.0125
*I *46:Y O *D *46
*CAP
*RES
*END

*D_NET *397 
*CONN
*I *45:B I *L 0.0159247
*I *15:Y O *D *15
*CAP
*RES
*END

*D_NET *325 
*CONN
*I *45:C I *L 0.0164926
*I *171:Y O *D *171
*CAP
*RES
*END

*D_NET *231 
*CONN
*I *165:A I *L 0.00932456
*I *18:B I *L 0.0129035
*I *45:Y O *D *45
*CAP
*RES
*END

*D_NET *350 
*CONN
*I *117:B I *L 0.0159247
*I *16:Y O *D *16
*CAP
*RES
*END

*D_NET *276 
*CONN
*I *117:C I *L 0.0164926
*I *168:Y O *D *168
*CAP
*RES
*END

*D_NET *317 
*CONN
*I *91:A I *L 0.00932456
*I *117:Y O *D *117
*CAP
*RES
*END

*D_NET *227 
*CONN
*I *80:C I *L 0.0150799
*I *91:Y O *D *91
*CAP
*RES
*END

*D_NET *255 
*CONN
*I *176:A I *L 0.015065
*I *115:A I *L 0.0144193
*I *17:Y O *D *17
*CAP
*RES
*END

*D_NET *378 
*CONN
*I *166:A I *L 0.00932456
*I *115:B I *L 0.0150643
*I *18:Y O *D *18
*CAP
*RES
*END

*D_NET *408 
*CONN
*I *185:A I *L 0.00932456
*I *80:A I *L 0.0173593
*I *115:Y O *D *115
*CAP
*RES
*END

*D_NET *368 
*CONN
*I *118:A I *L 0.0144193
*I *19:Y O *D *19
*CAP
*RES
*END

*D_NET *213 
*CONN
*I *118:B I *L 0.0150643
*I *9:Y O *D *9
*CAP
*RES
*END

*D_NET *354 
*CONN
*I *80:B I *L 0.0179733
*I *118:Y O *D *118
*CAP
*RES
*END

*D_NET *314 
*CONN
*I *119:A I *L 0.0158812
*I *166:Y O *D *166
*CAP
*RES
*END

*D_NET *306 
*CONN
*I *133:A I *L 0.0158812
*I *167:Y O *D *167
*CAP
*RES
*END

*D_NET *252 
*CONN
*I *120:C I *L 0.0164926
*I *133:C I *L 0.0164926
*I *83:Y O *D *83
*CAP
*RES
*END

*D_NET *224 
*CONN
*I *121:B I *L 0.0159247
*I *119:C I *L 0.0164926
*I *133:Y O *D *133
*CAP
*RES
*END

*D_NET *304 
*CONN
*I *119:B I *L 0.0159247
*I *176:Y O *D *176
*CAP
*RES
*END

*D_NET *402 
*CONN
*I *120:B I *L 0.0159247
*I *164:Y O *D *164
*CAP
*RES
*END

*D_NET *346 
*CONN
*I *121:C I *L 0.0164926
*I *120:Y O *D *120
*CAP
*RES
*END

*D_NET *241 
*CONN
*I *79:C I *L 0.0150799
*I *165:Y O *D *165
*CAP
*RES
*END

*D_NET *228 
*CONN
*I *79:A I *L 0.0173593
*I *174:Y O *D *174
*CAP
*RES
*END

*D_NET *256 
*CONN
*I *121:A I *L 0.0158812
*I *79:Y O *D *79
*CAP
*RES
*END


