*SPEF "IEEE 1481-2009"
*DESIGN "pic27ch"
*DATE "2019-05-20 17:32:28.603215"
*VENDOR "AUC_STUDENTS"
*PROGRAM "Def2Spef_Converter"
*VERSION "0.0"
*DESIGN_FLOW "PROJECT2_FLOW"
*DIVIDER /
*DELIMITER :
*BUS_DELIMITER <>
*T_UNIT 1 PS
*C_UNIT 1 FF
*R_UNIT 1 KOHM
*L_UNIT 1 UH

*NAME_MAP

*1 FILL_3_0_2
*2 FILL_3_0_1
*3 FILL_3_0_0
*4 FILL_5_0_0
*5 FILL_5_1_0
*6 FILL_5_1_1
*7 FILL_5_1_2
*8 NAND3X1_8
*9 NAND2X1_38
*10 INVX1_1
*11 OAI21X1_4
*12 NAND2X1_30
*13 NAND2X1_31
*14 NAND2X1_32
*15 NAND2X1_33
*16 NAND2X1_34
*17 NAND2X1_35
*18 NAND2X1_36
*19 NAND2X1_37
*20 FILL_4_1
*21 NAND2X1_12
*22 FILL_1_1_0
*23 FILL_1_1_1
*24 FILL_1_1_2
*25 NAND2X1_1
*26 NAND2X1_13
*27 NAND2X1_29
*28 NAND2X1_28
*29 NAND2X1_27
*30 NAND2X1_26
*31 NAND2X1_25
*32 NAND2X1_24
*33 NAND2X1_23
*34 NAND2X1_22
*35 NAND2X1_21
*36 NAND2X1_20
*37 NAND3X1_15
*38 NAND3X1_14
*39 NAND3X1_17
*40 NAND3X1_16
*41 NAND3X1_11
*42 NAND3X1_10
*43 NAND3X1_13
*44 NAND3X1_12
*45 NAND3X1_19
*46 NAND3X1_18
*47 FILL_3_1_2
*48 FILL_3_1_0
*49 FILL_3_1_1
*50 FILL_4_1_1
*51 FILL_6_1
*52 FILL_6_2
*53 FILL_2_1_2
*54 INVX1_2
*55 INVX1_3
*56 FILL_2_1_0
*57 INVX1_6
*58 INVX1_7
*59 INVX1_4
*60 INVX1_5
*61 INVX1_8
*62 INVX1_9
*63 NAND3X1_2
*64 FILL_1_0_1
*65 FILL_1_0_0
*66 FILL_1_0_2
*67 INVX1_17
*68 NAND2X1_8
*69 NAND2X1_9
*70 FILL_4_1_2
*71 NAND2X1_4
*72 NAND2X1_5
*73 NAND2X1_6
*74 NAND2X1_7
*75 INVX1_21
*76 NAND2X1_19
*77 NAND2X1_2
*78 NAND2X1_3
*79 AOI21X1_4
*80 AOI21X1_3
*81 AOI21X1_2
*82 AOI21X1_1
*83 AND2X2_12
*84 AND2X2_10
*85 AND2X2_11
*86 FILL_4_1_0
*87 FILL_2_0_2
*88 NAND3X1_9
*89 FILL_2_0_0
*90 FILL_2_0_1
*91 INVX1_28
*92 FILL_3_1
*93 FILL_1_2
*94 NAND3X1_5
*95 FILL_1_1
*96 NAND3X1_4
*97 INVX1_27
*98 INVX1_14
*99 INVX1_15
*100 INVX1_16
*101 NAND3X1_6
*102 INVX1_10
*103 INVX1_11
*104 INVX1_12
*105 INVX1_13
*106 NAND3X1_1
*107 INVX1_18
*108 INVX1_19
*109 AND2X2_9
*110 NOR2X1_1
*111 NOR2X1_3
*112 NOR2X1_2
*113 NOR2X1_5
*114 INVX1_23
*115 NOR2X1_7
*116 NOR2X1_6
*117 NAND3X1_20
*118 NOR2X1_8
*119 NAND3X1_22
*120 NAND3X1_23
*121 NAND3X1_24
*122 NOR2X1_4
*123 NAND2X1_16
*124 NAND2X1_17
*125 NAND2X1_14
*126 NAND2X1_15
*127 OAI21X1_3
*128 OAI21X1_2
*129 NAND2X1_10
*130 NAND2X1_11
*131 OAI21X1_9
*132 OAI21X1_8
*133 NAND3X1_21
*134 FILL_4_0_0
*135 FILL_4_0_1
*136 FILL_4_0_2
*137 BUFX2_7
*138 BUFX2_6
*139 BUFX2_5
*140 BUFX2_4
*141 BUFX2_3
*142 BUFX2_2
*143 BUFX2_1
*144 FILL_0_1_1
*145 FILL_0_1_0
*146 FILL_2_1_1
*147 FILL_0_1_2
*148 NAND2X1_18
*149 FILL_5_1
*150 OAI21X1_7
*151 OAI21X1_6
*152 OAI21X1_10
*153 FILL_5_0_1
*154 OAI21X1_5
*155 FILL_5_0_2
*156 OAI21X1_17
*157 OAI21X1_16
*158 OAI21X1_15
*159 OAI21X1_14
*160 OAI21X1_13
*161 OAI21X1_12
*162 OAI21X1_11
*163 AOI22X1_13
*164 INVX1_32
*165 INVX1_33
*166 INVX1_30
*167 INVX1_31
*168 AOI22X1_16
*169 AOI22X1_10
*170 AOI22X1_14
*171 AOI22X1_15
*172 AOI22X1_11
*173 OAI21X1_1
*174 INVX1_34
*175 OAI21X1_18
*176 OR2X2_1
*177 OAI22X1_1
*178 OAI22X1_2
*179 OAI22X1_3
*180 OAI22X1_4
*181 AND2X2_4
*182 AND2X2_5
*183 AND2X2_6
*184 AND2X2_7
*185 INVX1_29
*186 AND2X2_1
*187 AND2X2_2
*188 AND2X2_3
*189 INVX1_25
*190 INVX1_24
*191 NAND3X1_7
*192 INVX1_26
*193 AND2X2_8
*194 INVX1_20
*195 NAND3X1_3
*196 INVX1_22
*197 AOI22X1_8
*198 AOI22X1_9
*199 AOI22X1_12
*200 AOI22X1_1
*201 AOI22X1_2
*202 AOI22X1_3
*203 AOI22X1_4
*204 AOI22X1_5
*205 AOI22X1_6
*206 AOI22X1_7
*207 FILL_0_0_0
*208 FILL_0_0_1
*209 FILL_0_0_2
*210 out421
*211 _41_
*212 _10_
*213 _120_
*214 Ckt432.X1<6>
*215 _79_
*216 in47
*217 _94_
*218 in40
*219 in43
*220 _1_
*221 in60
*222 _49_
*223 _100_
*224 _125_
*225 _34_
*226 _107_
*227 _115_
*228 _130_
*229 _26_
*230 Ckt432.X2<4>
*231 Ckt432.I<7>
*232 _18_
*233 _8_
*234 out223
*235 _71_
*236 _55_
*237 _109_
*238 _66_
*239 _42_
*240 _17_
*241 _129_
*242 _93_
*243 in115
*244 _78_
*245 out432
*246 out431
*247 out430
*248 in30
*249 in34
*250 _32_
*251 in37
*252 _124_
*253 _90_
*254 _6_
*255 _116_
*256 _131_
*257 Ckt432.I<4>
*258 _37_
*259 Ckt432.X2<3>
*260 _9_
*261 _70_
*262 _27_
*263 _108_
*264 _67_
*265 _54_
*266 _77_
*267 _28_
*268 _80_
*269 _60_
*270 _102_
*271 in21
*272 in27
*273 _96_
*274 _3_
*275 in24
*276 _114_
*277 Ckt432.X1<8>
*278 _33_
*279 out329
*280 _20_
*281 Ckt432.X2<2>
*282 _68_
*283 _15_
*284 Ckt432.X1<7>
*285 _57_
*286 _12_
*287 _47_
*288 _81_
*289 _76_
*290 _11_
*291 _29_
*292 _61_
*293 Ckt432.X2<1>
*294 Ckt432.I<2>
*295 _48_
*296 in17
*297 in14
*298 _0_
*299 _101_
*300 in11
*301 _95_
*302 in95
*303 in92
*304 _126_
*305 _35_
*306 _123_
*307 in86
*308 _19_
*309 in99
*310 _56_
*311 _69_
*312 Ckt432.X1<0>
*313 _40_
*314 _122_
*315 _51_
*316 _62_
*317 Ckt432.I<8>
*318 _14_
*319 _38_
*320 Ckt432.X2<8>
*321 _86_
*322 Ckt432.I<3>
*323 Ckt432.X2<0>
*324 _59_
*325 _112_
*326 _105_
*327 in82
*328 _99_
*329 _22_
*330 _4_
*331 in89
*332 _45_
*333 in108
*334 _30_
*335 in102
*336 _75_
*337 _84_
*338 in105
*339 Ckt432.X1<1>
*340 _50_
*341 _74_
*342 _97_
*343 _63_
*344 _2_
*345 _87_
*346 _128_
*347 _103_
*348 _106_
*349 _58_
*350 _113_
*351 Ckt432.I<0>
*352 _23_
*353 Ckt432.X2<7>
*354 _121_
*355 _5_
*356 in79
*357 in112
*358 _98_
*359 in76
*360 in73
*361 out370
*362 Ckt432.X1<2>
*363 Ckt432.I<5>
*364 _89_
*365 _46_
*366 in50
*367 _13_
*368 _119_
*369 _92_
*370 _43_
*371 _64_
*372 Ckt432.X1<4>
*373 _16_
*374 _110_
*375 Ckt432.I<1>
*376 _21_
*377 Ckt432.X2<6>
*378 _117_
*379 in69
*380 in66
*381 in63
*382 _36_
*383 _24_
*384 _88_
*385 _53_
*386 _73_
*387 _104_
*388 Ckt432.X1<3>
*389 _39_
*390 in8
*391 _52_
*392 _65_
*393 in4
*394 Ckt432.X1<5>
*395 _91_
*396 in1
*397 _111_
*398 _85_
*399 _83_
*400 _7_
*401 Ckt432.X2<5>
*402 _127_
*403 in53
*404 _31_
*405 in56
*406 Ckt432.I<6>
*407 _82_
*408 _118_
*409 _25_
*410 _44_
*411 _72_

*PORTS
*1 O
*2 I
*3 I
*4 I
*5 I
*6 I
*7 I
*8 I
*9 I
*10 I
*11 I
*12 I
*13 O
*14 I
*15 I
*16 I
*17 O
*18 I
*19 I
*20 I
*21 I
*22 I
*23 O
*24 O
*25 I
*26 I
*27 O
*28 I
*29 I
*30 I
*31 I
*32 I
*33 I
*34 I
*35 I
*36 I
*37 I
*38 I
*39 I
*40 I
*41 I
*42 O
*43 I
*44 I
*45 I

*D_NET *298 2198.416955

*CONN
*I *168:A I *L 17.3718
*I *171:A I *L 17.3718
*I *170:A I *L 17.3718
*I *163:A I *L 17.3718
*I *199:A I *L 17.3718
*I *172:A I *L 17.3718
*I *169:A I *L 17.3718
*I *198:A I *L 17.3718
*I *197:A I *L 17.3718
*I *106:Y O *D NAND3X1
*I *143:A I *L 9.33171
*N *298:12 *C
*N *298:13 *C
*N *298:14 *C
*N *298:15 *C
*N *298:16 *C
*N *298:17 *C
*N *298:18 *C
*N *298:19 *C
*N *298:20 *C
*N *298:21 *C
*N *298:22 *C
*N *298:23 *C
*N *298:24 *C
*N *298:25 *C
*N *298:26 *C
*N *298:27 *C
*N *298:28 *C
*N *298:29 *C
*N *298:30 *C
*N *298:31 *C
*N *298:32 *C

*CAP
1 *168:A 17.3718
2 *171:A 17.3718
3 *170:A 17.3718
4 *163:A 17.3718
5 *199:A 17.3718
6 *172:A 17.3718
7 *169:A 17.3718
8 *198:A 17.3718
9 *197:A 17.3718
10 *106:Y 0.0
11 *143:A 9.33171
12 *298:12 156.24651
13 *298:13 43.40651
14 *298:14 147.56651
15 *298:15 190.96651
16 *298:16 46.328685
17 *298:17 194.552685
18 *298:18 27.800685
19 *298:19 129.704685
20 *298:20 120.440685
21 *298:21 416.888685
22 *298:22 9.272685
23 *298:23 11.588685
24 *298:24 64.856685
25 *298:25 26.289855
26 *298:26 26.289855
27 *298:27 13.149855
28 *298:28 91.989855
29 *298:29 26.289855
30 *298:30 39.429855
31 *298:31 236.529855
32 *298:32 13.149855

*RES

*END

*D_NET *234 67.319395

*CONN
*P *234 O
*I *143:Y O *D BUFX2
*N *234:3 *C
*N *234:4 *C
*N *234:5 *C

*CAP
1 *234 0.079
2 *143:Y 0.0
3 *234:3 27.800685
4 *234:4 13.149855
5 *234:5 26.289855

*RES

*END

*D_NET *220 2861.16057

*CONN
*I *168:C I *L 18.2378
*I *171:C I *L 18.2378
*I *170:C I *L 18.2378
*I *163:C I *L 18.2378
*I *199:C I *L 18.2378
*I *172:C I *L 18.2378
*I *169:C I *L 18.2378
*I *198:C I *L 18.2378
*I *197:C I *L 18.2378
*I *101:Y O *D NAND3X1
*I *142:A I *L 9.33171
*N *220:12 *C
*N *220:13 *C
*N *220:14 *C
*N *220:15 *C
*N *220:16 *C
*N *220:17 *C
*N *220:18 *C
*N *220:19 *C
*N *220:20 *C
*N *220:21 *C
*N *220:22 *C
*N *220:23 *C
*N *220:24 *C
*N *220:25 *C
*N *220:26 *C
*N *220:27 *C
*N *220:28 *C
*N *220:29 *C
*N *220:30 *C
*N *220:31 *C
*N *220:32 *C
*N *220:33 *C
*N *220:34 *C
*N *220:35 *C
*N *220:36 *C
*N *220:37 *C
*N *220:38 *C
*N *220:39 *C
*N *220:40 *C
*N *220:41 *C
*N *220:42 *C

*CAP
1 *168:C 18.2378
2 *171:C 18.2378
3 *170:C 18.2378
4 *163:C 18.2378
5 *199:C 18.2378
6 *172:C 18.2378
7 *169:C 18.2378
8 *198:C 18.2378
9 *197:C 18.2378
10 *101:Y 0.0
11 *142:A 9.33171
12 *220:12 164.92651
13 *220:13 14.63771
14 *220:14 19.20771
15 *220:15 64.856685
16 *220:16 9.272685
17 *220:17 9.272685
18 *220:18 27.800685
19 *220:19 64.856685
20 *220:20 138.968685
21 *220:21 11.588685
22 *220:22 370.568685
23 *220:23 18.536685
24 *220:24 11.588685
25 *220:25 194.552685
26 *220:26 27.800685
27 *220:27 240.872685
28 *220:28 39.429855
29 *220:29 78.849855
30 *220:30 52.569855
31 *220:31 157.689855
32 *220:32 105.129855
33 *220:33 26.289855
34 *220:34 13.149855
35 *220:35 13.149855
36 *220:36 210.249855
37 *220:37 105.129855
38 *220:38 26.289855
39 *220:39 183.969855
40 *220:40 10.521855
41 *220:41 236.529855
42 *220:42 39.429855

*RES

*END

*D_NET *279 39.443155

*CONN
*P *279 O
*I *142:Y O *D BUFX2
*N *279:3 *C

*CAP
1 *279 0.079
2 *142:Y 0.0
3 *279:3 39.364155

*RES

*END

*D_NET *344 2788.604285

*CONN
*I *16:A I *L 12.5
*I *15:A I *L 12.5
*I *14:A I *L 12.5
*I *13:A I *L 12.5
*I *12:A I *L 12.5
*I *27:A I *L 12.5
*I *28:A I *L 12.5
*I *29:A I *L 12.5
*I *30:A I *L 12.5
*I *41:Y O *D NAND3X1
*I *141:A I *L 9.33171
*N *344:12 *C
*N *344:13 *C
*N *344:14 *C
*N *344:15 *C
*N *344:16 *C
*N *344:17 *C
*N *344:18 *C
*N *344:19 *C
*N *344:20 *C
*N *344:21 *C
*N *344:22 *C
*N *344:23 *C
*N *344:24 *C
*N *344:25 *C
*N *344:26 *C
*N *344:27 *C
*N *344:28 *C
*N *344:29 *C
*N *344:30 *C
*N *344:31 *C
*N *344:32 *C
*N *344:33 *C
*N *344:34 *C
*N *344:35 *C
*N *344:36 *C
*N *344:37 *C
*N *344:38 *C

*CAP
1 *16:A 12.5
2 *15:A 12.5
3 *14:A 12.5
4 *13:A 12.5
5 *12:A 12.5
6 *27:A 12.5
7 *28:A 12.5
8 *29:A 12.5
9 *30:A 12.5
10 *41:Y 0.0
11 *141:A 9.33171
12 *344:12 130.20651
13 *344:13 173.60651
14 *344:14 18.29371
15 *344:15 14.63771
16 *344:16 101.912685
17 *344:17 185.288685
18 *344:18 101.912685
19 *344:19 101.912685
20 *344:20 55.592685
21 *344:21 92.648685
22 *344:22 37.064685
23 *344:23 9.272685
24 *344:24 64.856685
25 *344:25 10.521855
26 *344:26 105.129855
27 *344:27 381.069855
28 *344:28 10.521855
29 *344:29 525.609855
30 *344:30 65.709855
31 *344:31 65.709855
32 *344:32 13.149855
33 *344:33 144.549855
34 *344:34 118.269855
35 *344:35 26.289855
36 *344:36 10.521855
37 *344:37 91.989855
38 *344:38 10.521855

*RES

*END

*D_NET *361 39.508855

*CONN
*P *361 O
*I *141:Y O *D BUFX2
*N *361:3 *C

*CAP
1 *361 0.079
2 *141:Y 0.0
3 *361:3 39.429855

*RES

*END

*D_NET *274 81.018105

*CONN
*I *80:Y O *D AOI21X1
*I *140:A I *L 9.33171
*N *274:3 *C
*N *274:4 *C

*CAP
1 *80:Y 0.0
2 *140:A 9.33171
3 *274:3 43.88571
4 *274:4 27.800685

*RES

*END

*D_NET *210 67.253695

*CONN
*P *210 O
*I *140:Y O *D BUFX2
*N *210:3 *C
*N *210:4 *C
*N *210:5 *C

*CAP
1 *210 0.079
2 *140:Y 0.0
3 *210:3 27.800685
4 *210:4 26.224155
5 *210:5 13.149855

*RES

*END

*D_NET *330 23.96942

*CONN
*I *185:Y O *D INVX1
*I *139:A I *L 9.33171
*N *330:3 *C

*CAP
1 *185:Y 0.0
2 *139:A 9.33171
3 *330:3 14.63771

*RES

*END

*D_NET *247 39.443155

*CONN
*P *247 O
*I *139:Y O *D BUFX2
*N *247:3 *C

*CAP
1 *247 0.079
2 *139:Y 0.0
3 *247:3 39.364155

*RES

*END

*D_NET *355 132.505445

*CONN
*I *119:Y O *D NAND3X1
*I *138:A I *L 9.33171
*N *355:3 *C
*N *355:4 *C
*N *355:5 *C
*N *355:6 *C

*CAP
1 *119:Y 0.0
2 *138:A 9.33171
3 *355:3 17.36651
4 *355:4 27.800685
5 *355:5 64.856685
6 *355:6 13.149855

*RES

*END

*D_NET *246 38.601395

*CONN
*P *246 O
*I *138:Y O *D BUFX2
*N *246:3 *C
*N *246:4 *C

*CAP
1 *246 0.067
2 *138:Y 0.0
3 *246:3 29.26171
4 *246:4 9.272685

*RES

*END

*D_NET *254 317.795235

*CONN
*I *121:Y O *D NAND3X1
*I *137:A I *L 9.33171
*N *254:3 *C
*N *254:4 *C
*N *254:5 *C
*N *254:6 *C
*N *254:7 *C
*N *254:8 *C
*N *254:9 *C

*CAP
1 *121:Y 0.0
2 *137:A 9.33171
3 *254:3 18.29371
4 *254:4 14.63771
5 *254:5 120.440685
6 *254:6 39.429855
7 *254:7 39.429855
8 *254:8 10.521855
9 *254:9 65.709855

*RES

*END

*D_NET *245 55.659685

*CONN
*P *245 O
*I *137:Y O *D BUFX2
*N *245:3 *C

*CAP
1 *245 0.067
2 *137:Y 0.0
3 *245:3 55.592685

*RES

*END

*D_NET *359 484.79512

*CONN
*P *359 I
*I *169:B I *L 17.9972
*I *10:A I *L 9.32456
*N *359:4 *C
*N *359:5 *C
*N *359:6 *C
*N *359:7 *C
*N *359:8 *C
*N *359:9 *C

*CAP
1 *359 0.067
2 *169:B 17.9972
3 *10:A 9.32456
4 *359:4 29.26171
5 *359:5 18.29371
6 *359:6 11.588685
7 *359:7 101.854785
8 *359:8 0.008685
9 *359:9 296.398785

*RES

*END

*D_NET *400 138.98705

*CONN
*I *78:B I *L 12.9035
*I *82:A I *L 17.3593
*I *10:Y O *D INVX1
*N *400:4 *C
*N *400:5 *C
*N *400:6 *C

*CAP
1 *78:B 12.9035
2 *82:A 17.3593
3 *10:Y 0.0
4 *400:4 58.50971
5 *400:5 37.064685
6 *400:6 13.149855

*RES

*END

*D_NET *333 592.444535

*CONN
*P *333 I
*I *44:A I *L 15.8812
*I *109:A I *L 12.9068
*I *96:A I *L 15.8812
*I *25:A I *L 12.5
*I *54:A I *L 9.32456
*N *333:7 *C
*N *333:8 *C
*N *333:9 *C
*N *333:10 *C
*N *333:11 *C
*N *333:12 *C
*N *333:13 *C
*N *333:14 *C
*N *333:15 *C
*N *333:16 *C

*CAP
1 *333 0.079
2 *44:A 15.8812
3 *109:A 12.9068
4 *96:A 15.8812
5 *25:A 12.5
6 *54:A 9.32456
7 *333:7 14.63771
8 *333:8 18.29371
9 *333:9 14.63771
10 *333:10 138.968685
11 *333:11 37.064685
12 *333:12 105.129855
13 *333:13 78.849855
14 *333:14 39.429855
15 *333:15 52.569855
16 *333:16 26.289855

*RES

*END

*D_NET *233 47.48751

*CONN
*I *177:B I *L 18.2258
*I *54:Y O *D INVX1
*N *233:3 *C

*CAP
1 *177:B 18.2258
2 *54:Y 0.0
3 *233:3 29.26171

*RES

*END

*D_NET *302 647.337275

*CONN
*P *302 I
*I *43:A I *L 15.8812
*I *88:A I *L 15.8812
*I *94:A I *L 15.8812
*I *77:A I *L 12.5
*I *55:A I *L 9.32456
*N *302:7 *C
*N *302:8 *C
*N *302:9 *C
*N *302:10 *C
*N *302:11 *C
*N *302:12 *C
*N *302:13 *C
*N *302:14 *C
*N *302:15 *C

*CAP
1 *302 0.067
2 *43:A 15.8812
3 *88:A 15.8812
4 *94:A 15.8812
5 *77:A 12.5
6 *55:A 9.32456
7 *302:7 55.592685
8 *302:8 83.384685
9 *302:9 18.478785
10 *302:10 157.496685
11 *302:11 39.429855
12 *302:12 65.709855
13 *302:13 39.429855
14 *302:14 78.849855
15 *302:15 39.429855

*RES

*END

*D_NET *260 37.179785

*CONN
*I *177:D I *L 18.6431
*I *55:Y O *D INVX1
*N *260:3 *C

*CAP
1 *177:D 18.6431
2 *55:Y 0.0
3 *260:3 18.536685

*RES

*END

*D_NET *335 320.55388

*CONN
*P *335 I
*I *197:B I *L 17.9972
*I *102:A I *L 9.32456
*I *177:A I *L 17.3495
*N *335:5 *C
*N *335:6 *C
*N *335:7 *C
*N *335:8 *C
*N *335:9 *C
*N *335:10 *C

*CAP
1 *335 0.079
2 *197:B 17.9972
3 *102:A 9.32456
4 *177:A 17.3495
5 *335:5 92.648685
6 *335:6 46.328685
7 *335:7 18.536685
8 *335:8 13.149855
9 *335:9 26.289855
10 *335:10 78.849855

*RES

*END

*D_NET *331 234.50897

*CONN
*P *331 I
*I *198:B I *L 17.9972
*I *103:A I *L 9.32456
*I *177:C I *L 17.9862
*N *331:5 *C
*N *331:6 *C
*N *331:7 *C
*N *331:8 *C

*CAP
1 *331 0.067
2 *198:B 17.9972
3 *103:A 9.32456
4 *177:C 17.9862
5 *331:5 37.064685
6 *331:6 83.384685
7 *331:7 55.534785
8 *331:8 13.149855

*RES

*END

*D_NET *212 301.824295

*CONN
*I *82:C I *L 15.0799
*I *177:Y O *D OAI22X1
*N *212:3 *C
*N *212:4 *C
*N *212:5 *C

*CAP
1 *82:C 15.0799
2 *177:Y 0.0
3 *212:3 37.064685
4 *212:4 236.529855
5 *212:5 13.149855

*RES

*END

*D_NET *327 578.73138

*CONN
*P *327 I
*I *38:A I *L 15.8812
*I *76:A I *L 12.5
*I *130:A I *L 12.5
*I *78:A I *L 12.5
*I *82:B I *L 17.9733
*N *327:7 *C
*N *327:8 *C
*N *327:9 *C
*N *327:10 *C
*N *327:11 *C
*N *327:12 *C
*N *327:13 *C
*N *327:14 *C
*N *327:15 *C
*N *327:16 *C
*N *327:17 *C
*N *327:18 *C
*N *327:19 *C

*CAP
1 *327 0.067
2 *38:A 15.8812
3 *76:A 12.5
4 *130:A 12.5
5 *78:A 12.5
6 *82:B 17.9733
7 *327:7 29.26171
8 *327:8 64.856685
9 *327:9 9.272685
10 *327:10 11.588685
11 *327:11 64.856685
12 *327:12 46.328685
13 *327:13 83.326785
14 *327:14 92.648685
15 *327:15 13.149855
16 *327:16 13.149855
17 *327:17 39.429855
18 *327:18 13.149855
19 *327:19 26.289855

*RES

*END

*D_NET *290 317.11924

*CONN
*I *106:B I *L 15.9247
*I *82:Y O *D AOI21X1
*N *290:3 *C
*N *290:4 *C

*CAP
1 *106:B 15.9247
2 *82:Y 0.0
3 *290:3 222.344685
4 *290:4 78.849855

*RES

*END

*D_NET *251 198.895985

*CONN
*P *251 I
*I *163:B I *L 17.9972
*I *59:A I *L 9.32456
*N *251:4 *C
*N *251:5 *C
*N *251:6 *C

*CAP
1 *251 0.067
2 *163:B 17.9972
3 *59:A 9.32456
4 *251:4 64.856685
5 *251:5 27.800685
6 *251:6 78.849855

*RES

*END

*D_NET *286 333.81955

*CONN
*I *73:B I *L 12.9035
*I *200:A I *L 17.3718
*I *59:Y O *D INVX1
*N *286:4 *C
*N *286:5 *C
*N *286:6 *C

*CAP
1 *73:B 12.9035
2 *200:A 17.3718
3 *59:Y 0.0
4 *286:4 14.63771
5 *286:5 157.496685
6 *286:6 131.409855

*RES

*END

*D_NET *275 195.02984

*CONN
*P *275 I
*I *170:B I *L 17.9972
*I *60:A I *L 9.32456
*N *275:4 *C
*N *275:5 *C
*N *275:6 *C
*N *275:7 *C

*CAP
1 *275 0.067
2 *170:B 17.9972
3 *60:A 9.32456
4 *275:4 37.064685
5 *275:5 64.856685
6 *275:6 13.149855
7 *275:7 52.569855

*RES

*END

*D_NET *367 314.700825

*CONN
*I *74:B I *L 12.9035
*I *200:C I *L 18.2378
*I *60:Y O *D INVX1
*N *367:4 *C
*N *367:5 *C
*N *367:6 *C
*N *367:7 *C
*N *367:8 *C

*CAP
1 *74:B 12.9035
2 *200:C 18.2378
3 *60:Y 0.0
4 *367:4 14.63771
5 *367:5 43.88571
6 *367:6 18.29371
7 *367:7 58.50971
8 *367:8 148.232685

*RES

*END

*D_NET *219 1016.58378

*CONN
*P *219 I
*I *39:A I *L 15.8812
*I *33:A I *L 12.5
*I *188:A I *L 12.9068
*I *73:A I *L 12.5
*I *200:B I *L 17.9972
*N *219:7 *C
*N *219:8 *C
*N *219:9 *C
*N *219:10 *C
*N *219:11 *C
*N *219:12 *C
*N *219:13 *C
*N *219:14 *C
*N *219:15 *C
*N *219:16 *C
*N *219:17 *C

*CAP
1 *219 0.067
2 *39:A 15.8812
3 *33:A 12.5
4 *188:A 12.9068
5 *73:A 12.5
6 *200:B 17.9972
7 *219:7 14.63771
8 *219:8 18.536685
9 *219:9 222.344685
10 *219:10 166.760685
11 *219:11 101.912685
12 *219:12 52.569855
13 *219:13 118.269855
14 *219:14 13.149855
15 *219:15 105.129855
16 *219:16 118.269855
17 *219:17 13.149855

*RES

*END

*D_NET *248 731.202225

*CONN
*P *248 I
*I *46:A I *L 15.8812
*I *36:A I *L 12.5
*I *187:A I *L 12.9068
*I *74:A I *L 12.5
*I *200:D I *L 18.6552
*N *248:7 *C
*N *248:8 *C
*N *248:9 *C
*N *248:10 *C
*N *248:11 *C
*N *248:12 *C
*N *248:13 *C
*N *248:14 *C
*N *248:15 *C
*N *248:16 *C

*CAP
1 *248 0.079
2 *46:A 15.8812
3 *36:A 12.5
4 *187:A 12.9068
5 *74:A 12.5
6 *200:D 18.6552
7 *248:7 73.13371
8 *248:8 18.536685
9 *248:9 111.176685
10 *248:10 101.912685
11 *248:11 64.856685
12 *248:12 26.289855
13 *248:13 91.989855
14 *248:14 39.364155
15 *248:15 65.709855
16 *248:16 65.709855

*RES

*END

*D_NET *318 166.263225

*CONN
*I *195:A I *L 15.8812
*I *186:A I *L 12.9068
*I *200:Y O *D AOI22X1
*N *318:4 *C
*N *318:5 *C
*N *318:6 *C

*CAP
1 *195:A 15.8812
2 *186:A 12.9068
3 *200:Y 0.0
4 *318:4 74.120685
5 *318:5 37.064685
6 *318:6 26.289855

*RES

*END

*D_NET *381 203.757745

*CONN
*P *381 I
*I *172:B I *L 17.9972
*I *57:A I *L 9.32456
*N *381:4 *C
*N *381:5 *C
*N *381:6 *C
*N *381:7 *C
*N *381:8 *C

*CAP
1 *381 0.079
2 *172:B 17.9972
3 *57:A 9.32456
4 *381:4 29.26171
5 *381:5 18.29371
6 *381:6 13.149855
7 *381:7 10.521855
8 *381:8 105.129855

*RES

*END

*D_NET *283 85.86355

*CONN
*I *71:B I *L 12.9035
*I *201:A I *L 17.3718
*I *57:Y O *D INVX1
*N *283:4 *C
*N *283:5 *C
*N *283:6 *C

*CAP
1 *71:B 12.9035
2 *201:A 17.3718
3 *57:Y 0.0
4 *283:4 14.63771
5 *283:5 27.800685
6 *283:6 13.149855

*RES

*END

*D_NET *366 180.086035

*CONN
*P *366 I
*I *199:B I *L 17.9972
*I *58:A I *L 9.32456
*N *366:4 *C
*N *366:5 *C
*N *366:6 *C

*CAP
1 *366 0.079
2 *199:B 17.9972
3 *58:A 9.32456
4 *366:4 29.26171
5 *366:5 18.29371
6 *366:6 105.129855

*RES

*END

*D_NET *373 273.20326

*CONN
*I *72:B I *L 12.9035
*I *201:C I *L 18.2378
*I *58:Y O *D INVX1
*N *373:4 *C
*N *373:5 *C
*N *373:6 *C
*N *373:7 *C

*CAP
1 *72:B 12.9035
2 *201:C 18.2378
3 *58:Y 0.0
4 *373:4 18.29371
5 *373:5 58.50971
6 *373:6 138.968685
7 *373:7 26.289855

*RES

*END

*D_NET *379 538.00927

*CONN
*P *379 I
*I *37:A I *L 15.8812
*I *42:A I *L 15.8812
*I *181:A I *L 12.9068
*I *71:A I *L 12.5
*I *201:B I *L 17.9972
*N *379:7 *C
*N *379:8 *C
*N *379:9 *C
*N *379:10 *C
*N *379:11 *C
*N *379:12 *C
*N *379:13 *C
*N *379:14 *C
*N *379:15 *C

*CAP
1 *379 0.079
2 *37:A 15.8812
3 *42:A 15.8812
4 *181:A 12.9068
5 *71:A 12.5
6 *201:B 17.9972
7 *379:7 29.26171
8 *379:8 18.536685
9 *379:9 27.800685
10 *379:10 64.856685
11 *379:11 46.328685
12 *379:12 105.129855
13 *379:13 118.269855
14 *379:14 13.149855
15 *379:15 39.429855

*RES

*END

*D_NET *405 604.60924

*CONN
*P *405 I
*I *40:A I *L 15.8812
*I *31:A I *L 12.5
*I *182:A I *L 12.9068
*I *72:A I *L 12.5
*I *201:D I *L 18.6552
*N *405:7 *C
*N *405:8 *C
*N *405:9 *C
*N *405:10 *C
*N *405:11 *C
*N *405:12 *C
*N *405:13 *C
*N *405:14 *C

*CAP
1 *405 0.079
2 *40:A 15.8812
3 *31:A 12.5
4 *182:A 12.9068
5 *72:A 12.5
6 *201:D 18.6552
7 *405:7 43.88571
8 *405:8 14.63771
9 *405:9 37.064685
10 *405:10 27.800685
11 *405:11 185.288685
12 *405:12 105.129855
13 *405:13 91.989855
14 *405:14 26.289855

*RES

*END

*D_NET *240 468.452875

*CONN
*I *195:B I *L 15.9247
*I *186:B I *L 12.5119
*I *201:Y O *D AOI22X1
*N *240:4 *C
*N *240:5 *C
*N *240:6 *C
*N *240:7 *C
*N *240:8 *C

*CAP
1 *195:B 15.9247
2 *186:B 12.5119
3 *201:Y 0.0
4 *240:4 329.84651
5 *240:5 8.23971
6 *240:6 9.272685
7 *240:7 55.592685
8 *240:8 37.064685

*RES

*END

*D_NET *232 184.124995

*CONN
*I *106:C I *L 16.4926
*I *186:Y O *D AND2X2
*N *232:3 *C
*N *232:4 *C
*N *232:5 *C

*CAP
1 *106:C 16.4926
2 *186:Y 0.0
3 *232:3 101.912685
4 *232:4 13.149855
5 *232:5 52.569855

*RES

*END

*D_NET *396 198.566875

*CONN
*P *396 I
*I *168:B I *L 17.9972
*I *61:A I *L 9.32456
*N *396:4 *C
*N *396:5 *C
*N *396:6 *C
*N *396:7 *C
*N *396:8 *C

*CAP
1 *396 0.079
2 *168:B 17.9972
3 *61:A 9.32456
4 *396:4 29.26171
5 *396:5 18.29371
6 *396:6 18.536685
7 *396:7 26.224155
8 *396:8 78.849855

*RES

*END

*D_NET *308 276.51726

*CONN
*I *69:B I *L 12.9035
*I *202:A I *L 17.3718
*I *61:Y O *D INVX1
*N *308:4 *C
*N *308:5 *C
*N *308:6 *C
*N *308:7 *C

*CAP
1 *69:B 12.9035
2 *202:A 17.3718
3 *61:Y 0.0
4 *308:4 14.63771
5 *308:5 14.63771
6 *308:6 203.816685
7 *308:7 13.149855

*RES

*END

*D_NET *300 203.626345

*CONN
*P *300 I
*I *171:B I *L 17.9972
*I *62:A I *L 9.32456
*N *300:4 *C
*N *300:5 *C
*N *300:6 *C
*N *300:7 *C
*N *300:8 *C

*CAP
1 *300 0.079
2 *171:B 17.9972
3 *62:A 9.32456
4 *300:4 29.26171
5 *300:5 18.29371
6 *300:6 13.084155
7 *300:7 10.521855
8 *300:8 105.064155

*RES

*END

*D_NET *280 109.82697

*CONN
*I *68:B I *L 12.9035
*I *202:C I *L 18.2378
*I *62:Y O *D INVX1
*N *280:4 *C
*N *280:5 *C
*N *280:6 *C
*N *280:7 *C
*N *280:8 *C

*CAP
1 *68:B 12.9035
2 *202:C 18.2378
3 *62:Y 0.0
4 *280:4 14.63771
5 *280:5 14.63771
6 *280:6 4.58371
7 *280:7 18.536685
8 *280:8 26.289855

*RES

*END

*D_NET *393 589.706195

*CONN
*P *393 I
*I *117:A I *L 15.8812
*I *84:A I *L 12.9068
*I *184:A I *L 12.9068
*I *69:A I *L 12.5
*I *202:B I *L 17.9972
*N *393:7 *C
*N *393:8 *C
*N *393:9 *C
*N *393:10 *C
*N *393:11 *C
*N *393:12 *C
*N *393:13 *C
*N *393:14 *C
*N *393:15 *C

*CAP
1 *393 0.079
2 *117:A 15.8812
3 *84:A 12.9068
4 *184:A 12.9068
5 *69:A 12.5
6 *202:B 17.9972
7 *393:7 14.63771
8 *393:8 14.63771
9 *393:9 148.232685
10 *393:10 92.648685
11 *393:11 37.064685
12 *393:12 39.364155
13 *393:13 65.709855
14 *393:14 39.429855
15 *393:15 65.709855

*RES

*END

*D_NET *296 464.530485

*CONN
*P *296 I
*I *45:A I *L 15.8812
*I *85:A I *L 12.9068
*I *193:A I *L 12.9068
*I *68:A I *L 12.5
*I *202:D I *L 18.6552
*N *296:7 *C
*N *296:8 *C
*N *296:9 *C
*N *296:10 *C
*N *296:11 *C
*N *296:12 *C
*N *296:13 *C
*N *296:14 *C

*CAP
1 *296 0.079
2 *45:A 15.8812
3 *85:A 12.9068
4 *193:A 12.9068
5 *68:A 12.5
6 *202:D 18.6552
7 *296:7 29.26171
8 *296:8 37.064685
9 *296:9 37.064685
10 *296:10 64.856685
11 *296:11 91.989855
12 *296:12 26.224155
13 *296:13 78.849855
14 *296:14 26.289855

*RES

*END

*D_NET *376 567.738445

*CONN
*I *195:C I *L 16.4926
*I *106:A I *L 15.8812
*I *202:Y O *D AOI22X1
*N *376:4 *C
*N *376:5 *C
*N *376:6 *C
*N *376:7 *C
*N *376:8 *C
*N *376:9 *C

*CAP
1 *195:C 16.4926
2 *106:A 15.8812
3 *202:Y 0.0
4 *376:4 14.63771
5 *376:5 74.120685
6 *376:6 157.496685
7 *376:7 26.289855
8 *376:8 183.969855
9 *376:9 78.849855

*RES

*END

*D_NET *329 71.41321

*CONN
*I *25:B I *L 12.9035
*I *102:Y O *D INVX1
*N *329:3 *C

*CAP
1 *25:B 12.9035
2 *102:Y 0.0
3 *329:3 58.50971

*RES

*END

*D_NET *352 355.14925

*CONN
*I *173:C I *L 12.9138
*I *63:A I *L 15.8812
*I *25:Y O *D NAND2X1
*N *352:4 *C
*N *352:5 *C
*N *352:6 *C

*CAP
1 *173:C 12.9138
2 *63:A 15.8812
3 *25:Y 0.0
4 *352:4 2.75571
5 *352:5 231.608685
6 *352:6 91.989855

*RES

*END

*D_NET *383 27.54121

*CONN
*I *77:B I *L 12.9035
*I *103:Y O *D INVX1
*N *383:3 *C

*CAP
1 *77:B 12.9035
2 *103:Y 0.0
3 *383:3 14.63771

*RES

*END

*D_NET *409 377.233435

*CONN
*I *128:C I *L 12.9138
*I *63:B I *L 15.9247
*I *77:Y O *D NAND2X1
*N *409:4 *C
*N *409:5 *C
*N *409:6 *C
*N *409:7 *C
*N *409:8 *C

*CAP
1 *128:C 12.9138
2 *63:B 15.9247
3 *77:Y 0.0
4 *409:4 148.232685
5 *409:5 55.592685
6 *409:6 65.709855
7 *409:7 26.289855
8 *409:8 52.569855

*RES

*END

*D_NET *229 152.188505

*CONN
*I *127:C I *L 12.9138
*I *63:C I *L 16.4926
*I *78:Y O *D NAND2X1
*N *229:4 *C
*N *229:5 *C
*N *229:6 *C
*N *229:7 *C

*CAP
1 *127:C 12.9138
2 *63:C 16.4926
3 *78:Y 0.0
4 *229:4 29.26171
5 *229:5 27.800685
6 *229:6 39.429855
7 *229:7 26.289855

*RES

*END

*D_NET *262 1812.256735

*CONN
*I *131:A I *L 17.346
*I *132:A I *L 17.346
*I *150:A I *L 17.346
*I *151:A I *L 17.346
*I *154:A I *L 17.346
*I *11:A I *L 17.346
*I *127:A I *L 17.346
*I *128:A I *L 17.346
*I *173:A I *L 17.346
*I *63:Y O *D NAND3X1
*N *262:11 *C
*N *262:12 *C
*N *262:13 *C
*N *262:14 *C
*N *262:15 *C
*N *262:16 *C
*N *262:17 *C
*N *262:18 *C
*N *262:19 *C
*N *262:20 *C
*N *262:21 *C
*N *262:22 *C
*N *262:23 *C
*N *262:24 *C
*N *262:25 *C
*N *262:26 *C
*N *262:27 *C

*CAP
1 *131:A 17.346
2 *132:A 17.346
3 *150:A 17.346
4 *151:A 17.346
5 *154:A 17.346
6 *11:A 17.346
7 *127:A 17.346
8 *128:A 17.346
9 *173:A 17.346
10 *63:Y 0.0
11 *262:11 182.28651
12 *262:12 14.63771
13 *262:13 19.20771
14 *262:14 14.63771
15 *262:15 83.384685
16 *262:16 18.536685
17 *262:17 277.928685
18 *262:18 176.024685
19 *262:19 83.384685
20 *262:20 37.064685
21 *262:21 105.129855
22 *262:22 354.789855
23 *262:23 26.289855
24 *262:24 52.569855
25 *262:25 13.149855
26 *262:26 26.289855
27 *262:27 170.829855

*RES

*END

*D_NET *267 1920.33962

*CONN
*I *131:B I *L 18.2038
*I *132:B I *L 18.2038
*I *150:B I *L 18.2038
*I *151:B I *L 18.2038
*I *154:B I *L 18.2038
*I *11:B I *L 18.2038
*I *127:B I *L 18.2038
*I *128:B I *L 18.2038
*I *173:B I *L 18.2038
*I *195:Y O *D NAND3X1
*N *267:11 *C
*N *267:12 *C
*N *267:13 *C
*N *267:14 *C
*N *267:15 *C
*N *267:16 *C
*N *267:17 *C
*N *267:18 *C
*N *267:19 *C
*N *267:20 *C
*N *267:21 *C
*N *267:22 *C
*N *267:23 *C
*N *267:24 *C
*N *267:25 *C
*N *267:26 *C
*N *267:27 *C
*N *267:28 *C
*N *267:29 *C
*N *267:30 *C

*CAP
1 *131:B 18.2038
2 *132:B 18.2038
3 *150:B 18.2038
4 *151:B 18.2038
5 *154:B 18.2038
6 *11:B 18.2038
7 *127:B 18.2038
8 *128:B 18.2038
9 *173:B 18.2038
10 *195:Y 0.0
11 *267:11 182.28651
12 *267:12 14.63771
13 *267:13 194.552685
14 *267:14 46.328685
15 *267:15 27.800685
16 *267:16 37.064685
17 *267:17 101.912685
18 *267:18 259.400685
19 *267:19 27.800685
20 *267:20 78.849855
21 *267:21 13.149855
22 *267:22 26.289855
23 *267:23 144.549855
24 *267:24 65.709855
25 *267:25 39.429855
26 *267:26 315.369855
27 *267:27 26.289855
28 *267:28 10.521855
29 *267:29 131.409855
30 *267:30 13.149855

*RES

*END

*D_NET *312 122.56368

*CONN
*I *109:B I *L 12.5119
*I *96:B I *L 15.9247
*I *173:Y O *D OAI21X1
*N *312:4 *C
*N *312:5 *C
*N *312:6 *C

*CAP
1 *109:B 12.5119
2 *96:B 15.9247
3 *173:Y 0.0
4 *312:4 29.26171
5 *312:5 37.064685
6 *312:6 27.800685

*RES

*END

*D_NET *339 229.372235

*CONN
*I *88:C I *L 16.4926
*I *94:B I *L 15.9247
*I *128:Y O *D OAI21X1
*N *339:4 *C
*N *339:5 *C
*N *339:6 *C
*N *339:7 *C
*N *339:8 *C

*CAP
1 *88:C 16.4926
2 *94:B 15.9247
3 *128:Y 0.0
4 *339:4 101.912685
5 *339:5 55.592685
6 *339:6 13.149855
7 *339:7 13.149855
8 *339:8 13.149855

*RES

*END

*D_NET *362 143.633935

*CONN
*I *76:B I *L 12.9035
*I *130:B I *L 12.9035
*I *127:Y O *D OAI21X1
*N *362:4 *C
*N *362:5 *C
*N *362:6 *C
*N *362:7 *C

*CAP
1 *76:B 12.9035
2 *130:B 12.9035
3 *127:Y 0.0
4 *362:4 2.75571
5 *362:5 18.536685
6 *362:6 83.384685
7 *362:7 13.149855

*RES

*END

*D_NET *291 169.770195

*CONN
*I *11:C I *L 12.9138
*I *71:Y O *D NAND2X1
*N *291:3 *C
*N *291:4 *C
*N *291:5 *C

*CAP
1 *11:C 12.9138
2 *71:Y 0.0
3 *291:3 64.856685
4 *291:4 39.429855
5 *291:5 52.569855

*RES

*END

*D_NET *388 231.33758

*CONN
*I *42:C I *L 16.4926
*I *181:B I *L 12.5119
*I *11:Y O *D OAI21X1
*N *388:4 *C
*N *388:5 *C
*N *388:6 *C
*N *388:7 *C

*CAP
1 *42:C 16.4926
2 *181:B 12.5119
3 *11:Y 0.0
4 *388:4 138.968685
5 *388:5 37.064685
6 *388:6 13.149855
7 *388:7 13.149855

*RES

*END

*D_NET *334 157.611075

*CONN
*I *154:C I *L 12.9138
*I *72:Y O *D NAND2X1
*N *334:3 *C
*N *334:4 *C
*N *334:5 *C
*N *334:6 *C

*CAP
1 *154:C 12.9138
2 *72:Y 0.0
3 *334:3 2.75571
4 *334:4 39.429855
5 *334:5 10.521855
6 *334:6 91.989855

*RES

*END

*D_NET *372 217.834335

*CONN
*I *31:B I *L 12.9035
*I *182:B I *L 12.5119
*I *154:Y O *D OAI21X1
*N *372:4 *C
*N *372:5 *C
*N *372:6 *C
*N *372:7 *C
*N *372:8 *C

*CAP
1 *31:B 12.9035
2 *182:B 12.5119
3 *154:Y 0.0
4 *372:4 37.064685
5 *372:5 37.064685
6 *372:6 91.989855
7 *372:7 13.149855
8 *372:8 13.149855

*RES

*END

*D_NET *404 282.186195

*CONN
*I *151:C I *L 12.9138
*I *73:Y O *D NAND2X1
*N *404:3 *C
*N *404:4 *C
*N *404:5 *C

*CAP
1 *151:C 12.9138
2 *73:Y 0.0
3 *404:3 166.760685
4 *404:4 10.521855
5 *404:5 91.989855

*RES

*END

*D_NET *394 156.355505

*CONN
*I *33:B I *L 12.9035
*I *188:B I *L 12.5119
*I *151:Y O *D OAI21X1
*N *394:4 *C
*N *394:5 *C
*N *394:6 *C

*CAP
1 *33:B 12.9035
2 *188:B 12.5119
3 *151:Y 0.0
4 *394:4 18.29371
5 *394:5 29.26171
6 *394:6 83.384685

*RES

*END

*D_NET *250 170.751075

*CONN
*I *150:C I *L 12.9138
*I *74:Y O *D NAND2X1
*N *250:3 *C
*N *250:4 *C
*N *250:5 *C
*N *250:6 *C

*CAP
1 *150:C 12.9138
2 *74:Y 0.0
3 *250:3 2.75571
4 *250:4 52.569855
5 *250:5 10.521855
6 *250:6 91.989855

*RES

*END

*D_NET *214 102.406335

*CONN
*I *35:B I *L 12.9035
*I *187:B I *L 12.5119