*SPEF "IEEE 1481-2009"
*DESIGN "pic27ch"
*DATE "2019-04-27 06:06:07.930061"
*VENDOR "AUC_STUDENTS"
*PROGRAM "Def2Spef_Converter"
*VERSION "0.0"
*DESIGN_FLOW "PROJECT2_FLOW"
*DIVIDER /
*DELIMITER :
*BUS_DELIMITER [ ]
*T_UNIT 1 PS
*C_UNIT 1 FF
*R_UNIT 1 KOHM
*L_UNIT 1 UH

*NAME_MAP
