*SPEF "IEEE 1481-2009"
*DESIGN "uart"
*DATE "2019-05-05 01:42:21.742923"
*VENDOR "AUC_STUDENTS"
*PROGRAM "Def2Spef_Converter"
*VERSION "0.0"
*DESIGN_FLOW "PROJECT2_FLOW"
*DIVIDER /
*DELIMITER :
*BUS_DELIMITER <>
*T_UNIT 1 PS
*C_UNIT 1 FF
*R_UNIT 1 KOHM
*L_UNIT 1 UH

*NAME_MAP

*PORTS
* rx_data<6> I
* tx_data<5> I
* tx_data<7> I
* rx_data<0> I
* rx_data<4> I
* rx_data<2> I
* uart_rxd I
* rx_ack I
* clk I
* tx_data<2> I
* tx_data<4> I
* rx_avail I
* tx_data<0> I
* tx_busy I
* rx_data<7> I
* rx_error I
* tx_data<6> I
* rx_data<3> I
* rx_data<1> I
* rx_data<5> I
* reset I
* uart_txd I
* tx_data<3> I
* vdd I
* gnd I
* tx_wr I
* tx_data<1> I

*D_NET _2_<3> 
*CONN
*I AOI21X1_16:Y O *D AOI21X1
*I DFFPOSX1_37:D I *L 0.0130794
*CAP
*RES
*END

*D_NET _74_ 
*CONN
*I OAI21X1_13:Y O *D OAI21X1
*I OAI21X1_14:B I *L 0.0270702
*CAP
*RES
*END

*D_NET _183_ 
*CONN
*I NAND2X1_25:Y O *D NAND2X1
*I AOI21X1_13:C I *L 0.02277
*CAP
*RES
*END

*D_NET _234_ 
*CONN
*I OAI21X1_61:A I *L 0.0265312
*I BUFX2_13:A I *L 0.0134147
*I DFFPOSX1_1:Q O *D DFFPOSX1
*CAP
*RES
*END

*D_NET _7_<6> 
*CONN
*I MUX2X1_16:Y O *D MUX2X1
*I DFFPOSX1_44:D I *L 0.0130794
*CAP
*RES
*END

*D_NET _125_ 
*CONN
*I NOR2X1_24:Y O *D NOR2X1
*I AND2X2_3:B I *L 0.0177358
*CAP
*RES
*END

*D_NET rx_count16<0> 
*CONN
*I NOR2X1_23:B I *L 0.0227534
*I OAI21X1_36:A I *L 0.0265312
*I AOI21X1_9:A I *L 0.0265613
*I AND2X2_4:B I *L 0.0177358
*I DFFPOSX1_30:Q O *D DFFPOSX1
*CAP
*RES
*END

*D_NET _190_ 
*CONN
*I OAI21X1_46:Y O *D OAI21X1
*I AOI21X1_16:B I *L 0.0268633
*CAP
*RES
*END

*D_NET _231_<4> 
*CONN
*I INVX1_23:A I *L 0.0134094
*I BUFX2_7:A I *L 0.0134147
*I DFFPOSX1_23:Q O *D DFFPOSX1
*CAP
*RES
*END

*D_NET uart_txd 
*CONN
*P uart_txd I
*I BUFX2_13:Y O *D BUFX2
*CAP
*RES
*END

*D_NET tx_count16<3> 
*CONN
*I NOR2X1_13:A I *L 0.0222369
*I INVX1_4:A I *L 0.0134094
*I XNOR2X1_3:B I *L 0.0524659
*I DFFPOSX1_10:Q O *D DFFPOSX1
*CAP
*RES
*END

*D_NET _31_ 
*CONN
*I NOR2X1_9:Y O *D NOR2X1
*I NAND2X1_5:A I *L 0.0177118
*CAP
*RES
*END

*D_NET _221_ 
*CONN
*I INVX1_44:Y O *D INVX1
*I NAND2X1_31:A I *L 0.0177118
*CAP
*RES
*END

*D_NET _71_ 
*CONN
*I NAND2X1_10:Y O *D NAND2X1
*I OAI21X1_14:C I *L 0.0180101
*CAP
*RES
*END

*D_NET _196_ 
*CONN
*I INVX1_40:Y O *D INVX1
*I NAND2X1_28:A I *L 0.0177118
*CAP
*RES
*END

*D_NET _92_ 
*CONN
*I INVX1_7:Y O *D INVX1
*I NAND3X1_5:A I *L 0.0222511
*CAP
*RES
*END

*D_NET _4_<1> 
*CONN
*I AOI21X1_10:Y O *D AOI21X1
*I DFFPOSX1_31:D I *L 0.0130794
*CAP
*RES
*END

*D_NET _73_ 
*CONN
*I OAI21X1_12:Y O *D OAI21X1
*I OAI21X1_13:C I *L 0.0180101
*CAP
*RES
*END

*D_NET _181_ 
*CONN
*I OAI21X1_43:Y O *D OAI21X1
*I OAI21X1_44:C I *L 0.0180101
*I AOI21X1_14:A I *L 0.0265613
*CAP
*RES
*END

*D_NET _6_ 
*CONN
*I NOR2X1_25:Y O *D NOR2X1
*I DFFPOSX1_28:D I *L 0.0130794
*CAP
*RES
*END

*D_NET _208_ 
*CONN
*I OAI21X1_53:Y O *D OAI21X1
*I AOI21X1_23:A I *L 0.0265613
*CAP
*RES
*END

*D_NET _163_ 
*CONN
*I AND2X2_4:Y O *D AND2X2
*I OR2X2_2:A I *L 0.0228068
*I OAI21X1_38:B I *L 0.0270702
*I NAND2X1_21:B I *L 0.0180112
*CAP
*RES
*END

*D_NET _226_ 
*CONN
*I INVX1_45:Y O *D INVX1
*I AND2X2_8:B I *L 0.0177358
*CAP
*RES
*END

*D_NET _72_ 
*CONN
*I AND2X2_2:Y O *D AND2X2
*I OAI21X1_12:B I *L 0.0270702
*I AOI21X1_5:B I *L 0.0268633
*I NAND3X1_2:B I *L 0.022204
*I NAND2X1_11:B I *L 0.0180112
*CAP
*RES
*END

*D_NET _224_ 
*CONN
*I NAND2X1_32:Y O *D NAND2X1
*I AOI21X1_29:B I *L 0.0268633
*CAP
*RES
*END

*D_NET _11_<0> 
*CONN
*I OAI21X1_18:Y O *D OAI21X1
*I DFFPOSX1_11:D I *L 0.0130794
*CAP
*RES
*END

*D_NET _204_ 
*CONN
*I OR2X2_5:Y O *D OR2X2
*I AOI21X1_21:A I *L 0.0265613
*CAP
*RES
*END

*D_NET tx_data<7> 
*CONN
*P tx_data<7> I
*I INVX1_12:A I *L 0.0134094
*CAP
*RES
*END

*D_NET enable16_counter<9> 
*CONN
*I NOR2X1_8:A I *L 0.0222369
*I OAI21X1_54:C I *L 0.0180101
*I OR2X2_6:B I *L 0.0221869
*I OAI21X1_55:A I *L 0.0265312
*I DFFPOSX1_57:Q O *D DFFPOSX1
*CAP
*RES
*END

*D_NET _7_<4> 
*CONN
*I MUX2X1_14:Y O *D MUX2X1
*I DFFPOSX1_42:D I *L 0.0130794
*CAP
*RES
*END

*D_NET _49_ 
*CONN
*I NOR2X1_16:Y O *D NOR2X1
*I OAI22X1_2:C I *L 0.026839
*CAP
*RES
*END

*D_NET _87_ 
*CONN
*I AOI22X1_2:Y O *D AOI22X1
*I OAI21X1_18:C I *L 0.0180101
*CAP
*RES
*END

*D_NET _138_ 
*CONN
*I INVX1_25:Y O *D INVX1
*I MUX2X1_7:A I *L 0.0265929
*CAP
*RES
*END

*D_NET _0_<11> 
*CONN
*I AOI21X1_26:Y O *D AOI21X1
*I DFFPOSX1_59:D I *L 0.0130794
*CAP
*RES
*END

*D_NET _127_ 
*CONN
*I NAND2X1_14:Y O *D NAND2X1
*I NOR3X1_2:B I *L 0.0311174
*I OAI21X1_34:A I *L 0.0265312
*CAP
*RES
*END

*D_NET _119_ 
*CONN
*I INVX1_16:Y O *D INVX1
*I NAND2X1_12:A I *L 0.0177118
*I NOR2X1_29:A I *L 0.0222369
*CAP
*RES
*END

*D_NET _155_ 
*CONN
*I NOR2X1_28:Y O *D NOR2X1
*I AOI21X1_6:C I *L 0.02277
*I NAND2X1_26:B I *L 0.0180112
*CAP
*RES
*END

*D_NET _66_ 
*CONN
*I INVX2_6:Y O *D INVX2
*I NAND2X1_9:B I *L 0.0180112
*I OAI21X1_12:C I *L 0.0180101
*I OAI21X1_13:B I *L 0.0270702
*I AOI21X1_5:A I *L 0.0265613
*I NAND3X1_2:C I *L 0.0226301
*CAP
*RES
*END

*D_NET tx_bitcount<2> 
*CONN
*I NOR2X1_1:A I *L 0.0222369
*I INVX2_5:A I *L 0.0274396
*I NAND2X1_8:A I *L 0.0177118
*I DFFPOSX1_5:Q O *D DFFPOSX1
*CAP
*RES
*END

*D_NET _5_<1> 
*CONN
*I MUX2X1_3:Y O *D MUX2X1
*I DFFPOSX1_20:D I *L 0.0130794
*CAP
*RES
*END

*D_NET _216_ 
*CONN
*I NAND3X1_14:Y O *D NAND3X1
*I AOI21X1_26:B I *L 0.0268633
*I NOR2X1_33:B I *L 0.0227534
*I OAI21X1_58:B I *L 0.0270702
*CAP
*RES
*END

*D_NET clk_bF$buf1 
*CONN
*I BUFX4_9:Y O *D BUFX4
*I DFFPOSX1_43:CLK I *L 0.0405158
*I DFFPOSX1_38:CLK I *L 0.0405158
*I DFFPOSX1_19:CLK I *L 0.0405158
*I DFFPOSX1_20:CLK I *L 0.0405158
*I DFFPOSX1_39:CLK I *L 0.0405158
*I DFFPOSX1_44:CLK I *L 0.0405158
*I DFFPOSX1_41:CLK I *L 0.0405158
*I DFFPOSX1_25:CLK I *L 0.0405158
*I DFFPOSX1_40:CLK I *L 0.0405158
*CAP
*RES
*END

*D_NET _227_ 
*CONN
*I AND2X2_8:Y O *D AND2X2
*I OAI21X1_62:B I *L 0.0270702
*CAP
*RES
*END

*D_NET _218_ 
*CONN
*I INVX1_43:Y O *D INVX1
*I AOI21X1_27:A I *L 0.0265613
*I OAI21X1_59:B I *L 0.0270702
*CAP
*RES
*END

*D_NET _0_<3> 
*CONN
*I NAND3X1_13:Y O *D NAND3X1
*I DFFPOSX1_51:D I *L 0.0130794
*CAP
*RES
*END

*D_NET _154_ 
*CONN
*I NOR2X1_27:Y O *D NOR2X1
*I NOR2X1_28:B I *L 0.0227534
*I AOI21X1_6:B I *L 0.0268633
*CAP
*RES
*END

*D_NET _109_ 
*CONN
*I NAND3X1_9:Y O *D NAND3X1
*I OAI21X1_29:C I *L 0.0180101
*CAP
*RES
*END

*D_NET _171_ 
*CONN
*I OAI21X1_40:Y O *D OAI21X1
*I AOI21X1_12:B I *L 0.0268633
*CAP
*RES
*END

*D_NET rx_data<2> 
*CONN
*P rx_data<2> I
*I BUFX2_5:Y O *D BUFX2
*CAP
*RES
*END

*D_NET _18_ 
*CONN
*I NAND2X1_1:Y O *D NAND2X1
*I INVX1_1:A I *L 0.0134094
*I NAND3X1_3:B I *L 0.022204
*I NAND3X1_4:B I *L 0.022204
*I NAND3X1_5:B I *L 0.022204
*I NAND3X1_6:B I *L 0.022204
*I NAND3X1_7:B I *L 0.022204
*I NAND3X1_8:B I *L 0.022204
*I NAND3X1_9:B I *L 0.022204
*CAP
*RES
*END

*D_NET _5_<5> 
*CONN
*I MUX2X1_7:Y O *D MUX2X1
*I DFFPOSX1_24:D I *L 0.0130794
*CAP
*RES
*END

*D_NET _81_ 
*CONN
*I OAI21X1_15:Y O *D OAI21X1
*I OAI21X1_16:C I *L 0.0180101
*CAP
*RES
*END

*D_NET _0_<13> 
*CONN
*I AOI21X1_28:Y O *D AOI21X1
*I DFFPOSX1_61:D I *L 0.0130794
*CAP
*RES
*END

*D_NET _8_<3> 
*CONN
*I OAI22X1_4:Y O *D OAI22X1
*I DFFPOSX1_6:D I *L 0.0130794
*CAP
*RES
*END

*D_NET _1_ 
*CONN
*I OAI21X1_33:Y O *D OAI21X1
*I DFFPOSX1_27:D I *L 0.0130794
*CAP
*RES
*END

*D_NET _11_<1> 
*CONN
*I OAI21X1_20:Y O *D OAI21X1
*I DFFPOSX1_12:D I *L 0.0130794
*CAP
*RES
*END

*D_NET _26_ 
*CONN
*I NAND2X1_3:Y O *D NAND2X1
*I NOR2X1_6:B I *L 0.0227534
*I OAI21X1_53:B I *L 0.0270702
*CAP
*RES
*END

*D_NET tx_data<4> 
*CONN
*P tx_data<4> I
*I AOI22X1_6:C I *L 0.0270661
*CAP
*RES
*END

*D_NET _211_ 
*CONN
*I OAI21X1_54:Y O *D OAI21X1
*I AOI21X1_24:B I *L 0.0268633
*CAP
*RES
*END

*D_NET rx_data<1> 
*CONN
*P rx_data<1> I
*I BUFX2_4:Y O *D BUFX2
*CAP
*RES
*END

*D_NET enable16_counter<6> 
*CONN
*I NOR2X1_5:B I *L 0.0227534
*I OR2X2_5:B I *L 0.0221869
*I OAI21X1_51:C I *L 0.0180101
*I OAI21X1_52:A I *L 0.0265312
*I DFFPOSX1_54:Q O *D DFFPOSX1
*CAP
*RES
*END

*D_NET _4_<3> 
*CONN
*I AOI21X1_12:Y O *D AOI21X1
*I DFFPOSX1_33:D I *L 0.0130794
*CAP
*RES
*END

*D_NET _164_ 
*CONN
*I OR2X2_2:Y O *D OR2X2
*I AOI21X1_10:B I *L 0.0268633
*CAP
*RES
*END

*D_NET enable16_counter<11> 
*CONN
*I NOR2X1_7:B I *L 0.0227534
*I OAI21X1_56:C I *L 0.0180101
*I DFFPOSX1_59:Q O *D DFFPOSX1
*CAP
*RES
*END

*D_NET tx_bitcount<1> 
*CONN
*I INVX2_1:A I *L 0.0274396
*I NOR2X1_16:A I *L 0.0222369
*I NOR2X1_17:A I *L 0.0222369
*I DFFPOSX1_4:Q O *D DFFPOSX1
*CAP
*RES
*END

*D_NET _123_ 
*CONN
*I NOR2X1_22:Y O *D NOR2X1
*I NAND2X1_14:B I *L 0.0180112
*I NOR2X1_28:A I *L 0.0222369
*CAP
*RES
*END

*D_NET _7_<1> 
*CONN
*I MUX2X1_11:Y O *D MUX2X1
*I DFFPOSX1_39:D I *L 0.0130794
*CAP
*RES
*END

*D_NET _88_ 
*CONN
*I INVX1_6:Y O *D INVX1
*I NAND3X1_4:A I *L 0.0222511
*CAP
*RES
*END

*D_NET _182_ 
*CONN
*I OAI21X1_44:Y O *D OAI21X1
*I NAND2X1_25:B I *L 0.0180112
*CAP
*RES
*END

*D_NET _0_<10> 
*CONN
*I AOI21X1_25:Y O *D AOI21X1
*I DFFPOSX1_58:D I *L 0.0130794
*CAP
*RES
*END

*D_NET _197_ 
*CONN
*I NAND2X1_28:Y O *D NAND2X1
*I AOI21X1_18:A I *L 0.0265613
*I NAND2X1_29:B I *L 0.0180112
*CAP
*RES
*END

*D_NET _24_ 
*CONN
*I NOR2X1_4:Y O *D NOR2X1
*I NAND2X1_3:A I *L 0.0177118
*CAP
*RES
*END

*D_NET _110_ 
*CONN
*I OAI21X1_29:Y O *D OAI21X1
*I OAI21X1_30:B I *L 0.0270702
*CAP
*RES
*END

*D_NET _4_<2> 
*CONN
*I AOI21X1_11:Y O *D AOI21X1
*I DFFPOSX1_32:D I *L 0.0130794
*CAP
*RES
*END

*D_NET _70_ 
*CONN
*I AOI21X1_4:Y O *D AOI21X1
*I OAI21X1_11:C I *L 0.0180101
*CAP
*RES
*END

*D_NET _187_ 
*CONN
*I AND2X2_7:Y O *D AND2X2
*I OAI21X1_45:B I *L 0.0270702
*I NAND3X1_12:C I *L 0.0226301
*CAP
*RES
*END

*D_NET _191_ 
*CONN
*I NAND3X1_12:Y O *D NAND3X1
*I AOI21X1_16:A I *L 0.0265613
*CAP
*RES
*END

*D_NET _188_ 
*CONN
*I OAI21X1_45:Y O *D OAI21X1
*I AOI21X1_14:C I *L 0.02277
*CAP
*RES
*END

*D_NET enable16_counter<8> 
*CONN
*I NOR2X1_7:A I *L 0.0222369
*I OAI21X1_53:C I *L 0.0180101
*I INVX1_42:A I *L 0.0134094
*I OAI21X1_54:A I *L 0.0265312
*I DFFPOSX1_56:Q O *D DFFPOSX1
*CAP
*RES
*END

*D_NET rxd_reg<3> 
*CONN
*I INVX1_22:A I *L 0.0134094
*I DFFPOSX1_41:Q O *D DFFPOSX1
*CAP
*RES
*END

*D_NET _132_ 
*CONN
*I INVX1_19:Y O *D INVX1
*I MUX2X1_4:A I *L 0.0265929
*CAP
*RES
*END

*D_NET _45_ 
*CONN
*I NAND2X1_7:Y O *D NAND2X1
*I OAI21X1_3:B I *L 0.0270702
*I OAI21X1_7:B I *L 0.0270702
*I OAI21X1_9:B I *L 0.0270702
*I OAI21X1_15:B I *L 0.0270702
*I OAI21X1_35:B I *L 0.0270702
*I AOI21X1_8:C I *L 0.02277
*I NAND2X1_27:B I *L 0.0180112
*CAP
*RES
*END

*D_NET enable16_counter<4> 
*CONN
*I NOR2X1_4:A I *L 0.0222369
*I AOI21X1_19:B I *L 0.0268633
*I OAI21X1_49:A I *L 0.0265312
*I OR2X2_3:B I *L 0.0221869
*I OAI21X1_50:A I *L 0.0265312
*I DFFPOSX1_52:Q O *D DFFPOSX1
*CAP
*RES
*END

*D_NET _7_<7> 
*CONN
*I MUX2X1_17:Y O *D MUX2X1
*I DFFPOSX1_45:D I *L 0.0130794
*CAP
*RES
*END

*D_NET _10_<2> 
*CONN
*I NOR2X1_21:Y O *D NOR2X1
*I DFFPOSX1_9:D I *L 0.0130794
*CAP
*RES
*END

*D_NET _219_ 
*CONN
*I OAI21X1_57:Y O *D OAI21X1
*I AOI21X1_27:B I *L 0.0268633
*CAP
*RES
*END

*D_NET enable16_counter<1> 
*CONN
*I NOR2X1_3:A I *L 0.0222369
*I AOI21X1_17:A I *L 0.0265613
*I OAI21X1_47:A I *L 0.0265312
*I OAI21X1_48:A I *L 0.0265312
*I DFFPOSX1_49:Q O *D DFFPOSX1
*CAP
*RES
*END

*D_NET _0_<5> 
*CONN
*I AOI21X1_20:Y O *D AOI21X1
*I DFFPOSX1_53:D I *L 0.0130794
*CAP
*RES
*END

*D_NET _2_<0> 
*CONN
*I AND2X2_6:Y O *D AND2X2
*I DFFPOSX1_34:D I *L 0.0130794
*CAP
*RES
*END

*D_NET _54_ 
*CONN
*I OAI21X1_5:Y O *D OAI21X1
*I OAI22X1_2:D I *L 0.027353
*CAP
*RES
*END

*D_NET _128_ 
*CONN
*I NOR3X1_2:Y O *D NOR3X1
*I NAND2X1_15:B I *L 0.0180112
*I NOR2X1_25:A I *L 0.0222369
*CAP
*RES
*END

*D_NET _0_<4> 
*CONN
*I OAI21X1_49:Y O *D OAI21X1
*I DFFPOSX1_52:D I *L 0.0130794
*CAP
*RES
*END

*D_NET _2_<2> 
*CONN
*I AOI21X1_14:Y O *D AOI21X1
*I DFFPOSX1_36:D I *L 0.0130794
*CAP
*RES
*END

*D_NET _59_ 
*CONN
*I AOI21X1_3:Y O *D AOI21X1
*I OAI21X1_8:B I *L 0.0270702
*CAP
*RES
*END

*D_NET _135_ 
*CONN
*I INVX1_22:Y O *D INVX1
*I MUX2X1_5:B I *L 0.0265339
*I MUX2X1_12:A I *L 0.0265929
*I MUX2X1_13:B I *L 0.0265339
*CAP
*RES
*END

*D_NET _186_ 
*CONN
*I NOR2X1_30:Y O *D NOR2X1
*I AND2X2_7:B I *L 0.0177358
*I AOI21X1_15:A I *L 0.0265613
*CAP
*RES
*END

*D_NET _207_ 
*CONN
*I OAI21X1_52:Y O *D OAI21X1
*I AOI21X1_22:A I *L 0.0265613
*CAP
*RES
*END

*D_NET _33_ 
*CONN
*I NAND2X1_5:Y O *D NAND2X1
*I NOR2X1_11:B I *L 0.0227534
*CAP
*RES
*END

*D_NET tx_bitcount<0> 
*CONN
*I INVX2_3:A I *L 0.0274396
*I XNOR2X1_1:B I *L 0.0524659
*I NOR2X1_17:B I *L 0.0227534
*I DFFPOSX1_3:Q O *D DFFPOSX1
*CAP
*RES
*END

*D_NET _57_ 
*CONN
*I NAND2X1_8:Y O *D NAND2X1
*I AOI21X1_2:A I *L 0.0265613
*I XNOR2X1_2:A I *L 0.0435905
*CAP
*RES
*END

*D_NET _194_ 
*CONN
*I NAND2X1_27:Y O *D NAND2X1
*I NOR2X1_32:B I *L 0.0227534
*I AOI21X1_18:C I *L 0.02277
*I AOI21X1_20:C I *L 0.02277
*I AOI21X1_21:C I *L 0.02277
*I AOI21X1_22:C I *L 0.02277
*I AOI21X1_23:C I *L 0.02277
*I AOI21X1_24:C I *L 0.02277
*I AOI21X1_25:C I *L 0.02277
*I AOI21X1_26:C I *L 0.02277
*I AOI21X1_27:C I *L 0.02277
*I AOI21X1_28:C I *L 0.02277
*I AOI21X1_29:C I *L 0.02277
*I NOR2X1_34:A I *L 0.0222369
*CAP
*RES
*END

*D_NET _10_<1> 
*CONN
*I OAI21X1_14:Y O *D OAI21X1
*I DFFPOSX1_8:D I *L 0.0130794
*CAP
*RES
*END

*D_NET _0_<1> 
*CONN
*I OAI21X1_47:Y O *D OAI21X1
*I DFFPOSX1_49:D I *L 0.0130794
*CAP
*RES
*END

*D_NET _38_ 
*CONN
*I NAND2X1_6:Y O *D NAND2X1
*I OR2X2_1:B I *L 0.0221869
*I XNOR2X1_1:A I *L 0.0435905
*I NOR2X1_15:A I *L 0.0222369
*I AOI21X1_2:C I *L 0.02277
*I AOI21X1_3:B I *L 0.0268633
*I MUX2X1_1:S I *L 0.0295792
*I NOR3X1_1:B I *L 0.0311174
*CAP
*RES
*END

*D_NET _60_ 
*CONN
*I OAI21X1_7:Y O *D OAI21X1
*I OAI21X1_8:C I *L 0.0180101
*CAP
*RES
*END

*D_NET _229_ 
*CONN
*I OAI21X1_61:Y O *D OAI21X1
*I OAI21X1_62:A I *L 0.0265312
*CAP
*RES
*END

*D_NET _79_ 
*CONN
*I NAND2X1_11:Y O *D NAND2X1
*I XNOR2X1_3:A I *L 0.0435905
*CAP
*RES
*END

*D_NET _14_ 
*CONN
*I OAI21X1_1:Y O *D OAI21X1
*I AOI21X1_1:C I *L 0.02277
*CAP
*RES
*END

*D_NET clk_bF$buf4 
*CONN
*I BUFX4_6:Y O *D BUFX4
*I DFFPOSX1_59:CLK I *L 0.0405158
*I DFFPOSX1_13:CLK I *L 0.0405158
*I DFFPOSX1_61:CLK I *L 0.0405158
*I DFFPOSX1_63:CLK I *L 0.0405158
*I DFFPOSX1_54:CLK I *L 0.0405158
*I DFFPOSX1_62:CLK I *L 0.0405158
*I DFFPOSX1_55:CLK I *L 0.0405158
*I DFFPOSX1_60:CLK I *L 0.0405158
*I DFFPOSX1_57:CLK I *L 0.0405158
*CAP
*RES
*END

*D_NET _15_ 
*CONN
*I INVX2_1:Y O *D INVX2
*I NAND2X1_1:A I *L 0.0177118
*I NOR2X1_18:A I *L 0.0222369
*I OAI22X1_2:B I *L 0.0271075
*I OAI21X1_6:A I *L 0.0265312
*CAP
*RES
*END

*D_NET _89_ 
*CONN
*I NAND3X1_4:Y O *D NAND3X1
*I OAI21X1_19:C I *L 0.0180101
*CAP
*RES
*END

*D_NET _222_ 
*CONN
*I NAND2X1_31:Y O *D NAND2X1
*I AOI21X1_28:A I *L 0.0265613
*I OAI21X1_60:B I *L 0.0270702
*CAP
*RES
*END

*D_NET _101_ 
*CONN
*I NAND3X1_7:Y O *D NAND3X1
*I OAI21X1_25:C I *L 0.0180101
*CAP
*RES
*END

*D_NET _165_ 
*CONN
*I OAI21X1_37:Y O *D OAI21X1
*I AOI21X1_10:C I *L 0.02277
*CAP
*RES
*END

*D_NET _99_ 
*CONN
*I AOI22X1_5:Y O *D AOI22X1
*I OAI21X1_24:C I *L 0.0180101
*CAP
*RES
*END

*D_NET _209_ 
*CONN
*I INVX1_42:Y O *D INVX1
*I NAND2X1_30:A I *L 0.0177118
*CAP
*RES
*END

*D_NET _214_ 
*CONN
*I OR2X2_7:Y O *D OR2X2
*I AOI21X1_25:A I *L 0.0265613
*CAP
*RES
*END

*D_NET _37_ 
*CONN
*I NOR2X1_13:Y O *D NOR2X1
*I NAND2X1_6:B I *L 0.0180112
*CAP
*RES
*END

*D_NET _93_ 
*CONN
*I NAND3X1_5:Y O *D NAND3X1
*I OAI21X1_21:C I *L 0.0180101
*CAP
*RES
*END

*D_NET _185_ 
*CONN
*I NOR2X1_29:Y O *D NOR2X1
*I AOI21X1_14:B I *L 0.0268633
*CAP
*RES
*END

*D_NET _0_<7> 
*CONN
*I AOI21X1_22:Y O *D AOI21X1
*I DFFPOSX1_55:D I *L 0.0130794
*CAP
*RES
*END

*D_NET tx_count16<2> 
*CONN
*I NOR2X1_13:B I *L 0.0227534
*I AOI21X1_5:C I *L 0.02277
*I NAND3X1_2:A I *L 0.0222511
*I AOI22X1_1:B I *L 0.0268737
*I NAND2X1_11:A I *L 0.0177118
*I DFFPOSX1_9:Q O *D DFFPOSX1
*CAP
*RES
*END

*D_NET _225_ 
*CONN
*I OAI21X1_60:Y O *D OAI21X1
*I NOR2X1_34:B I *L 0.0227534
*CAP
*RES
*END

*D_NET rx_bitcount<0> 
*CONN
*I NAND2X1_13:B I *L 0.0180112
*I INVX1_34:A I *L 0.0134094
*I NAND2X1_23:A I *L 0.0177118
*I DFFPOSX1_34:Q O *D DFFPOSX1
*CAP
*RES
*END

*D_NET _8_<2> 
*CONN
*I OAI22X1_3:Y O *D OAI22X1
*I DFFPOSX1_5:D I *L 0.0130794
*CAP
*RES
*END

*D_NET _168_ 
*CONN
*I NAND2X1_21:Y O *D NAND2X1
*I OAI21X1_39:A I *L 0.0265312
*I OAI21X1_40:B I *L 0.0270702
*I OAI21X1_41:A I *L 0.0265312
*CAP
*RES
*END

*D_NET _117_ 
*CONN
*I INVX1_15:Y O *D INVX1
*I NOR3X1_2:A I *L 0.0310602
*I AOI21X1_6:A I *L 0.0265613
*I MUX2X1_17:A I *L 0.0265929
*CAP
*RES
*END

*D_NET _52_ 
*CONN
*I NOR2X1_18:Y O *D NOR2X1
*I NOR2X1_19:B I *L 0.0227534
*I NAND2X1_8:B I *L 0.0180112
*CAP
*RES
*END

*D_NET clk_bF$buf3 
*CONN
*I BUFX4_7:Y O *D BUFX4
*I DFFPOSX1_33:CLK I *L 0.0405158
*I DFFPOSX1_26:CLK I *L 0.0405158
*I DFFPOSX1_24:CLK I *L 0.0405158
*I DFFPOSX1_28:CLK I *L 0.0405158
*I DFFPOSX1_14:CLK I *L 0.0405158
*I DFFPOSX1_27:CLK I *L 0.0405158
*I DFFPOSX1_16:CLK I *L 0.0405158
*I DFFPOSX1_45:CLK I *L 0.0405158
*I DFFPOSX1_51:CLK I *L 0.0405158
*CAP
*RES
*END

*D_NET _4_<0> 
*CONN
*I AOI21X1_9:Y O *D AOI21X1
*I DFFPOSX1_30:D I *L 0.0130794
*CAP
*RES
*END

*D_NET txd_reg<4> 
*CONN
*I INVX1_8:A I *L 0.0134094
*I OAI21X1_25:A I *L 0.0265312
*I AOI22X1_6:B I *L 0.0268737
*I DFFPOSX1_15:Q O *D DFFPOSX1
*CAP
*RES
*END

*D_NET _5_<6> 
*CONN
*I MUX2X1_8:Y O *D MUX2X1
*I DFFPOSX1_25:D I *L 0.0130794
*CAP
*RES
*END

*D_NET _134_ 
*CONN
*I INVX1_21:Y O *D INVX1
*I MUX2X1_5:A I *L 0.0265929
*CAP
*RES
*END

*D_NET _64_ 
*CONN
*I OAI21X1_9:Y O *D OAI21X1
*I OAI21X1_10:C I *L 0.0180101
*CAP
*RES
*END

*D_NET _137_ 
*CONN
*I INVX1_24:Y O *D INVX1
*I MUX2X1_6:B I *L 0.0265339
*I MUX2X1_13:A I *L 0.0265929
*I MUX2X1_14:B I *L 0.0265339
*CAP
*RES
*END

*D_NET rxd_reg<0> 
*CONN
*I INVX1_14:A I *L 0.0134094
*I DFFPOSX1_38:Q O *D DFFPOSX1
*CAP
*RES
*END

*D_NET _3_ 
*CONN
*I AOI21X1_7:Y O *D AOI21X1
*I DFFPOSX1_29:D I *L 0.0130794
*CAP
*RES
*END

*D_NET _114_ 
*CONN
*I OAI21X1_32:Y O *D OAI21X1
*I AOI22X1_9:C I *L 0.0270661
*CAP
*RES
*END

*D_NET enable16_counter<15> 
*CONN
*I NOR2X1_9:A I *L 0.0222369
*I OAI21X1_60:C I *L 0.0180101
*I DFFPOSX1_63:Q O *D DFFPOSX1
*CAP
*RES
*END

*D_NET _231_<2> 
*CONN
*I INVX1_19:A I *L 0.0134094
*I BUFX2_5:A I *L 0.0134147
*I DFFPOSX1_21:Q O *D DFFPOSX1
*CAP
*RES
*END

*D_NET _75_ 
*CONN
*I AOI21X1_5:Y O *D AOI21X1
*I NOR2X1_21:A I *L 0.0222369
*CAP
*RES
*END

*D_NET _23_ 
*CONN
*I NAND2X1_2:Y O *D NAND2X1
*I NOR2X1_6:A I *L 0.0222369
*I NAND3X1_13:B I *L 0.022204
*I AOI21X1_19:A I *L 0.0265613
*I OAI21X1_49:B I *L 0.0270702
*I OR2X2_3:A I *L 0.0228068
*I OAI21X1_50:B I *L 0.0270702
*I OAI21X1_53:A I *L 0.0265312
*CAP
*RES
*END

*D_NET tx_wr 
*CONN
*P tx_wr I
*I OAI21X1_1:B I *L 0.0270702
*I INVX1_2:A I *L 0.0134094
*CAP
*RES
*END

*D_NET _0_<12> 
*CONN
*I AOI21X1_27:Y O *D AOI21X1
*I DFFPOSX1_60:D I *L 0.0130794
*CAP
*RES
*END

*D_NET _50_ 
*CONN
*I INVX1_3:Y O *D INVX1
*I OAI21X1_5:C I *L 0.0180101
*I AOI22X1_1:C I *L 0.0270661
*CAP
*RES
*END

*D_NET _29_ 
*CONN
*I NOR2X1_8:Y O *D NOR2X1
*I NAND2X1_4:B I *L 0.0180112
*I NAND3X1_14:B I *L 0.022204
*CAP
*RES
*END

*D_NET _12_ 
*CONN
*I OAI21X1_62:Y O *D OAI21X1
*I DFFPOSX1_1:D I *L 0.0130794
*CAP
*RES
*END

*D_NET _2_<1> 
*CONN
*I AOI21X1_13:Y O *D AOI21X1
*I DFFPOSX1_35:D I *L 0.0130794
*CAP
*RES
*END

*D_NET _67_ 
*CONN
*I NAND2X1_9:Y O *D NAND2X1
*I AOI21X1_4:A I *L 0.0265613
*I OAI21X1_11:B I *L 0.0270702
*CAP
*RES
*END

*D_NET _159_ 
*CONN
*I NAND2X1_20:Y O *D NAND2X1
*I AOI21X1_7:C I *L 0.02277
*CAP
*RES
*END

*D_NET _111_ 
*CONN
*I AOI22X1_8:Y O *D AOI22X1
*I OAI21X1_30:C I *L 0.0180101
*CAP
*RES
*END

*D_NET _131_ 
*CONN
*I INVX1_18:Y O *D INVX1
*I MUX2X1_3:B I *L 0.0265339
*I MUX2X1_10:A I *L 0.0265929
*I MUX2X1_11:B I *L 0.0265339
*CAP
*RES
*END

*D_NET _179_ 
*CONN
*I OAI21X1_42:Y O *D OAI21X1
*I AND2X2_6:B I *L 0.0177358
*CAP
*RES
*END

*D_NET rxd_reg<1> 
*CONN
*I INVX1_18:A I *L 0.0134094
*I DFFPOSX1_39:Q O *D DFFPOSX1
*CAP
*RES
*END

*D_NET rxd_reg<5> 
*CONN
*I INVX1_26:A I *L 0.0134094
*I DFFPOSX1_43:Q O *D DFFPOSX1
*CAP
*RES
*END

*D_NET rxd_reg<4> 
*CONN
*I INVX1_24:A I *L 0.0134094
*I DFFPOSX1_42:Q O *D DFFPOSX1
*CAP
*RES
*END

*D_NET _153_ 
*CONN
*I NAND2X1_19:Y O *D NAND2X1
*I NOR2X1_27:B I *L 0.0227534
*CAP
*RES
*END

*D_NET _102_ 
*CONN
*I OAI21X1_25:Y O *D OAI21X1
*I OAI21X1_26:B I *L 0.0270702
*CAP
*RES
*END

*D_NET _0_<2> 
*CONN
*I AOI21X1_18:Y O *D AOI21X1
*I DFFPOSX1_50:D I *L 0.0130794
*CAP
*RES
*END

*D_NET _77_ 
*CONN
*I AOI22X1_1:Y O *D AOI22X1
*I NOR2X1_21:B I *L 0.0227534
*CAP
*RES
*END

*D_NET _97_ 
*CONN
*I NAND3X1_6:Y O *D NAND3X1
*I OAI21X1_23:C I *L 0.0180101
*CAP
*RES
*END

*D_NET _63_ 
*CONN
*I MUX2X1_1:Y O *D MUX2X1
*I OAI21X1_10:B I *L 0.0270702
*CAP
*RES
*END

*D_NET rxd_reg<6> 
*CONN
*I INVX1_28:A I *L 0.0134094
*I DFFPOSX1_44:Q O *D DFFPOSX1
*CAP
*RES
*END

*D_NET rx_bitcount<3> 
*CONN
*I NAND2X1_13:A I *L 0.0177118
*I INVX1_33:A I *L 0.0134094
*I OAI21X1_46:C I *L 0.0180101
*I DFFPOSX1_37:Q O *D DFFPOSX1
*CAP
*RES
*END

*D_NET _228_ 
*CONN
*I INVX1_46:Y O *D INVX1
*I OAI21X1_61:C I *L 0.0180101
*CAP
*RES
*END

*D_NET _121_ 
*CONN
*I NAND2X1_12:Y O *D NAND2X1
*I NOR2X1_22:B I *L 0.0227534
*I NOR2X1_27:A I *L 0.0222369
*CAP
*RES
*END

*D_NET _68_ 
*CONN
*I NOR2X1_20:Y O *D NOR2X1
*I AND2X2_1:A I *L 0.0180033
*I INVX1_46:A I *L 0.0134094
*CAP
*RES
*END

*D_NET _203_ 
*CONN
*I OAI21X1_50:Y O *D OAI21X1
*I AOI21X1_20:B I *L 0.0268633
*CAP
*RES
*END

*D_NET _118_ 
*CONN
*I NAND3X1_10:Y O *D NAND3X1
*I NOR3X1_2:C I *L 0.0317844
*I OAI21X1_34:B I *L 0.0270702
*I NOR2X1_26:B I *L 0.0227534
*I INVX1_35:A I *L 0.0134094
*I OAI21X1_39:B I *L 0.0270702
*I OAI21X1_41:B I *L 0.0270702
*CAP
*RES
*END

*D_NET _215_ 
*CONN
*I OAI21X1_56:Y O *D OAI21X1
*I AOI21X1_26:A I *L 0.0265613
*CAP
*RES
*END

*D_NET _169_ 
*CONN
*I OAI21X1_39:Y O *D OAI21X1
*I AOI21X1_11:C I *L 0.02277
*CAP
*RES
*END

*D_NET tx_count16<0> 
*CONN
*I NOR2X1_12:B I *L 0.0227534
*I AOI21X1_4:B I *L 0.0268633
*I OAI21X1_11:A I *L 0.0265312
*I AND2X2_2:B I *L 0.0177358
*I DFFPOSX1_7:Q O *D DFFPOSX1
*CAP
*RES
*END

*D_NET tx_data<2> 
*CONN
*P tx_data<2> I
*I AOI22X1_4:C I *L 0.0270661
*CAP
*RES
*END

*D_NET _43_ 
*CONN
*I XNOR2X1_1:Y O *D XNOR2X1
*I OAI21X1_4:B I *L 0.0270702
*CAP
*RES
*END

*D_NET _146_ 
*CONN
*I NAND2X1_17:Y O *D NAND2X1
*I OAI21X1_34:C I *L 0.0180101
*CAP
*RES
*END

*D_NET _205_ 
*CONN
*I OAI21X1_51:Y O *D OAI21X1
*I AOI21X1_21:B I *L 0.0268633
*CAP
*RES
*END

*D_NET clk 
*CONN
*P clk I
*I BUFX4_4:A I *L 0.0204034
*I BUFX4_5:A I *L 0.0204034
*I BUFX4_6:A I *L 0.0204034
*I BUFX4_7:A I *L 0.0204034
*I BUFX4_8:A I *L 0.0204034
*I BUFX4_9:A I *L 0.0204034
*I BUFX4_10:A I *L 0.0204034
*CAP
*RES
*END

*D_NET rx_count16<1> 
*CONN
*I NOR2X1_23:A I *L 0.0222369
*I AND2X2_4:A I *L 0.0180033
*I OAI21X1_37:A I *L 0.0265312
*I DFFPOSX1_31:Q O *D DFFPOSX1
*CAP
*RES
*END

*D_NET _201_ 
*CONN
*I OR2X2_3:Y O *D OR2X2
*I OR2X2_4:A I *L 0.0228068
*I OAI21X1_51:B I *L 0.0270702
*CAP
*RES
*END

*D_NET _11_<6> 
*CONN
*I OAI21X1_30:Y O *D OAI21X1
*I DFFPOSX1_17:D I *L 0.0130794
*CAP
*RES
*END

*D_NET enable16_counter<7> 
*CONN
*I NOR2X1_4:B I *L 0.0227534
*I OAI21X1_52:C I *L 0.0180101
*I DFFPOSX1_55:Q O *D DFFPOSX1
*CAP
*RES
*END

*D_NET _212_ 
*CONN
*I OR2X2_6:Y O *D OR2X2
*I AOI21X1_24:A I *L 0.0265613
*I OR2X2_7:A I *L 0.0228068
*I OAI21X1_56:B I *L 0.0270702
*CAP
*RES
*END

*D_NET txd_reg<7> 
*CONN
*I INVX1_11:A I *L 0.0134094
*I OAI21X1_31:C I *L 0.0180101
*I OAI21X1_32:B I *L 0.0270702
*I DFFPOSX1_18:Q O *D DFFPOSX1
*CAP
*RES
*END

*D_NET _8_<1> 
*CONN
*I OAI22X1_2:Y O *D OAI22X1
*I DFFPOSX1_4:D I *L 0.0130794
*CAP
*RES
*END

*D_NET _91_ 
*CONN
*I AOI22X1_3:Y O *D AOI22X1
*I OAI21X1_20:C I *L 0.0180101
*CAP
*RES
*END

*D_NET _124_ 
*CONN
*I NOR2X1_23:Y O *D NOR2X1
*I AND2X2_3:A I *L 0.0180033
*I OR2X2_2:B I *L 0.0221869
*CAP
*RES
*END

*D_NET _112_ 
*CONN
*I INVX1_12:Y O *D INVX1
*I AOI22X1_9:A I *L 0.0265618
*CAP
*RES
*END

*D_NET uart_rxd2 
*CONN
*I INVX1_15:A I *L 0.0134094
*I OAI21X1_35:A I *L 0.0265312
*I AOI21X1_8:A I *L 0.0265613
*I DFFPOSX1_47:Q O *D DFFPOSX1
*CAP
*RES
*END

*D_NET _11_<4> 
*CONN
*I OAI21X1_26:Y O *D OAI21X1
*I DFFPOSX1_15:D I *L 0.0130794
*CAP
*RES
*END

*D_NET _210_ 
*CONN
*I NAND2X1_30:Y O *D NAND2X1
*I AOI21X1_23:B I *L 0.0268633
*I OR2X2_6:A I *L 0.0228068
*I OAI21X1_55:B I *L 0.0270702
*CAP
*RES
*END

*D_NET _200_ 
*CONN
*I AOI21X1_19:Y O *D AOI21X1
*I OAI21X1_49:C I *L 0.0180101
*CAP
*RES
*END

*D_NET _130_ 
*CONN
*I INVX1_17:Y O *D INVX1
*I MUX2X1_3:A I *L 0.0265929
*CAP
*RES
*END

*D_NET _34_ 
*CONN
*I NOR2X1_11:Y O *D NOR2X1
*I NAND3X1_1:C I *L 0.0226301
*I NAND2X1_7:B I *L 0.0180112
*I NAND3X1_10:C I *L 0.0226301
*I AND2X2_5:B I *L 0.0177358
*CAP
*RES
*END

*D_NET tx_count16<1> 
*CONN
*I NOR2X1_12:A I *L 0.0222369
*I NAND2X1_10:B I *L 0.0180112
*I AND2X2_2:A I *L 0.0180033
*I OAI21X1_13:A I *L 0.0265312
*I DFFPOSX1_8:Q O *D DFFPOSX1
*CAP
*RES
*END

*D_NET enable16_counter<10> 
*CONN
*I NOR2X1_8:B I *L 0.0227534
*I OAI21X1_55:C I *L 0.0180101
*I OR2X2_7:B I *L 0.0221869
*I OAI21X1_56:A I *L 0.0265312
*I DFFPOSX1_58:Q O *D DFFPOSX1
*CAP
*RES
*END

*D_NET _69_ 
*CONN
*I AND2X2_1:Y O *D AND2X2
*I AOI21X1_4:C I *L 0.02277
*I AOI22X1_2:D I *L 0.0273706
*I AOI22X1_3:D I *L 0.0273706
*I AOI22X1_4:D I *L 0.0273706
*I AOI22X1_5:D I *L 0.0273706
*I AOI22X1_6:D I *L 0.0273706
*I AOI22X1_7:D I *L 0.0273706
*I AOI22X1_8:D I *L 0.0273706
*I AOI22X1_9:B I *L 0.0268737
*CAP
*RES
*END

*D_NET _167_ 
*CONN
*I OAI21X1_38:Y O *D OAI21X1
*I AOI21X1_11:A I *L 0.0265613
*CAP
*RES
*END

*D_NET _7_<0> 
*CONN
*I MUX2X1_10:Y O *D MUX2X1
*I DFFPOSX1_38:D I *L 0.0130794
*CAP
*RES
*END

*D_NET _39_ 
*CONN
*I OR2X2_1:Y O *D OR2X2
*I NOR2X1_14:B I *L 0.0227534
*I OAI21X1_5:B I *L 0.0270702
*I OAI21X1_31:B I *L 0.0270702
*CAP
*RES
*END

*D_NET _0_<6> 
*CONN
*I AOI21X1_21:Y O *D AOI21X1
*I DFFPOSX1_54:D I *L 0.0130794
*CAP
*RES
*END

*D_NET _113_ 
*CONN
*I OAI21X1_31:Y O *D OAI21X1
*I AOI22X1_9:D I *L 0.0273706
*CAP
*RES
*END

*D_NET _76_ 
*CONN
*I NAND3X1_2:Y O *D NAND3X1
*I AOI22X1_1:D I *L 0.0273706
*CAP
*RES
*END

*D_NET _206_ 
*CONN
*I INVX1_41:Y O *D INVX1
*I AOI21X1_22:B I *L 0.0268633
*I OAI21X1_54:B I *L 0.0270702
*I OAI21X1_57:B I *L 0.0270702
*CAP
*RES
*END

*D_NET _53_ 
*CONN
*I NOR2X1_19:Y O *D NOR2X1
*I OAI21X1_5:A I *L 0.0265312
*CAP
*RES
*END

*D_NET _94_ 
*CONN
*I OAI21X1_21:Y O *D OAI21X1
*I OAI21X1_22:B I *L 0.0270702
*CAP
*RES
*END

*D_NET enable16_counter<14> 
*CONN
*I NOR2X1_10:A I *L 0.0222369
*I OAI21X1_59:C I *L 0.0180101
*I OAI21X1_60:A I *L 0.0265312
*I DFFPOSX1_62:Q O *D DFFPOSX1
*CAP
*RES
*END

*D_NET _220_ 
*CONN
*I OAI21X1_58:Y O *D OAI21X1
*I AOI21X1_28:B I *L 0.0268633
*CAP
*RES
*END

*D_NET clk_bF$buf0 
*CONN
*I BUFX4_10:Y O *D BUFX4
*I DFFPOSX1_4:CLK I *L 0.0405158
*I DFFPOSX1_12:CLK I *L 0.0405158
*I DFFPOSX1_53:CLK I *L 0.0405158
*I DFFPOSX1_15:CLK I *L 0.0405158
*I DFFPOSX1_52:CLK I *L 0.0405158
*I DFFPOSX1_29:CLK I *L 0.0405158
*I DFFPOSX1_2:CLK I *L 0.0405158
*I DFFPOSX1_18:CLK I *L 0.0405158
*I DFFPOSX1_17:CLK I *L 0.0405158
*CAP
*RES
*END

*D_NET _140_ 
*CONN
*I INVX1_27:Y O *D INVX1
*I MUX2X1_8:A I *L 0.0265929
*CAP
*RES
*END

*D_NET rx_error 
*CONN
*P rx_error I
*I BUFX2_11:Y O *D BUFX2
*CAP
*RES
*END

*D_NET _231_<1> 
*CONN
*I INVX1_17:A I *L 0.0134094
*I BUFX2_4:A I *L 0.0134147
*I DFFPOSX1_20:Q O *D DFFPOSX1
*CAP
*RES
*END

*D_NET rx_count16<2> 
*CONN
*I NOR2X1_24:B I *L 0.0227534
*I INVX1_36:A I *L 0.0134094
*I NAND2X1_21:A I *L 0.0177118
*I DFFPOSX1_32:Q O *D DFFPOSX1
*CAP
*RES
*END

*D_NET _32_ 
*CONN
*I NOR2X1_10:Y O *D NOR2X1
*I NAND2X1_5:B I *L 0.0180112
*I NAND2X1_32:A I *L 0.0177118
*CAP
*RES
*END

*D_NET rx_avail 
*CONN
*P rx_avail I
*I BUFX2_2:Y O *D BUFX2
*CAP
*RES
*END

*D_NET _122_ 
*CONN
*I NAND2X1_13:Y O *D NAND2X1
*I NOR2X1_22:A I *L 0.0222369
*CAP
*RES
*END

*D_NET _116_ 
*CONN
*I INVX1_14:Y O *D INVX1
*I MUX2X1_2:B I *L 0.0265339
*I MUX2X1_10:B I *L 0.0265339
*CAP
*RES
*END

*D_NET rx_bitcount<1> 
*CONN
*I INVX2_7:A I *L 0.0274396
*I DFFPOSX1_35:Q O *D DFFPOSX1
*CAP
*RES
*END

*D_NET _78_ 
*CONN
*I INVX1_4:Y O *D INVX1
*I OAI21X1_15:C I *L 0.0180101
*I OAI22X1_5:B I *L 0.0271075
*CAP
*RES
*END

*D_NET _106_ 
*CONN
*I OAI21X1_27:Y O *D OAI21X1
*I OAI21X1_28:B I *L 0.0270702
*CAP
*RES
*END

*D_NET txd_reg<1> 
*CONN
*I INVX1_5:A I *L 0.0134094
*I OAI21X1_19:A I *L 0.0265312
*I AOI22X1_3:B I *L 0.0268737
*I DFFPOSX1_12:Q O *D DFFPOSX1
*CAP
*RES
*END

*D_NET _189_ 
*CONN
*I AOI21X1_15:Y O *D AOI21X1
*I OAI21X1_46:A I *L 0.0265312
*CAP
*RES
*END

*D_NET _231_<5> 
*CONN
*I INVX1_25:A I *L 0.0134094
*I BUFX2_8:A I *L 0.0134147
*I DFFPOSX1_24:Q O *D DFFPOSX1
*CAP
*RES
*END

*D_NET rx_bitcount<2> 
*CONN
*I INVX1_16:A I *L 0.0134094
*I OAI21X1_45:A I *L 0.0265312
*I AOI21X1_15:B I *L 0.0268633
*I NAND3X1_12:A I *L 0.0222511
*I DFFPOSX1_36:Q O *D DFFPOSX1
*CAP
*RES
*END

*D_NET _13__bF$buf1 
*CONN
*I BUFX4_3:Y O *D BUFX4
*I NAND2X1_9:A I *L 0.0177118
*I OAI22X1_2:A I *L 0.0265291
*I OAI22X1_5:A I *L 0.0265291
*I OAI22X1_4:A I *L 0.0265291
*I OAI22X1_1:A I *L 0.0265291
*I OAI22X1_3:A I *L 0.0265291
*CAP
*RES
*END

*D_NET _158_ 
*CONN
*I OAI21X1_35:Y O *D OAI21X1
*I NAND2X1_20:B I *L 0.0180112
*CAP
*RES
*END

*D_NET rxd_reg<7> 
*CONN
*I INVX1_30:A I *L 0.0134094
*I DFFPOSX1_45:Q O *D DFFPOSX1
*CAP
*RES
*END

*D_NET _11_<3> 
*CONN
*I OAI21X1_24:Y O *D OAI21X1
*I DFFPOSX1_14:D I *L 0.0130794
*CAP
*RES
*END

*D_NET _48_ 
*CONN
*I NOR2X1_15:Y O *D NOR2X1
*I NOR2X1_16:B I *L 0.0227534
*I NAND3X1_3:C I *L 0.0226301
*I NAND3X1_4:C I *L 0.0226301
*I NAND3X1_5:C I *L 0.0226301
*I NAND3X1_6:C I *L 0.0226301
*I NAND3X1_7:C I *L 0.0226301
*I NAND3X1_8:C I *L 0.0226301
*I NAND3X1_9:C I *L 0.0226301
*I OAI21X1_61:B I *L 0.0270702
*CAP
*RES
*END

*D_NET _83_ 
*CONN
*I NOR3X1_1:Y O *D NOR3X1
*I OAI21X1_17:B I *L 0.0270702
*I OAI21X1_19:B I *L 0.0270702
*I OAI21X1_21:B I *L 0.0270702
*I OAI21X1_23:B I *L 0.0270702
*I OAI21X1_25:B I *L 0.0270702
*I OAI21X1_27:B I *L 0.0270702
*I OAI21X1_29:B I *L 0.0270702
*I AND2X2_8:A I *L 0.0180033
*CAP
*RES
*END

*D_NET _5_<7> 
*CONN
*I MUX2X1_9:Y O *D MUX2X1
*I DFFPOSX1_26:D I *L 0.0130794
*CAP
*RES
*END

*D_NET _0_<8> 
*CONN
*I AOI21X1_23:Y O *D AOI21X1
*I DFFPOSX1_56:D I *L 0.0130794
*CAP
*RES
*END

*D_NET rx_data<7> 
*CONN
*P rx_data<7> I
*I BUFX2_10:Y O *D BUFX2