*SPEF "IEEE 1481-2009"
*DESIGN "o8_cpu"
*DATE "2019-05-22 01:32:03.000144"
*VENDOR "AUC_STUDENTS"
*PROGRAM "Def2Spef_Converter"
*VERSION "0.0"
*DESIGN_FLOW "PROJECT2_FLOW"
*DIVIDER /
*DELIMITER :
*BUS_DELIMITER <>
*T_UNIT 1 PS
*C_UNIT 1 FF
*R_UNIT 1 KOHM
*L_UNIT 1 UH

*NAME_MAP

*1 FILL_3_0_2
*2 FILL_3_0_1
*3 FILL_3_0_0
*4 FILL_5_1_0
*5 FILL_5_1_1
*6 FILL_5_1_2
*7 FILL_4_0_0
*8 BUFX4_3
*9 FILL_1_1_0
*10 FILL_1_1_1
*11 FILL_1_1_2
*12 FILL_7_1_2
*13 FILL_7_1_0
*14 FILL_7_1_1
*15 OAI21X1_53
*16 OAI21X1_52
*17 OAI21X1_51
*18 OAI21X1_50
*19 DFFPOSX1_27
*20 DFFPOSX1_26
*21 DFFPOSX1_25
*22 DFFPOSX1_24
*23 DFFPOSX1_23
*24 DFFPOSX1_22
*25 DFFPOSX1_21
*26 DFFPOSX1_20
*27 DFFPOSX1_29
*28 DFFPOSX1_28
*29 FILL_9_0_1
*30 FILL_9_0_0
*31 FILL_9_0_2
*32 FILL_2_0_2
*33 FILL_2_0_0
*34 FILL_2_0_1
*35 FILL_3_1
*36 FILL_3_2
*37 FILL_1_1
*38 FILL_7_1
*39 FILL_7_2
*40 FILL_7_3
*41 NOR2X1_1
*42 BUFX2_38
*43 NOR2X1_3
*44 NOR2X1_2
*45 NOR2X1_5
*46 NOR2X1_4
*47 NOR2X1_7
*48 NOR2X1_6
*49 NOR2X1_9
*50 BUFX2_30
*51 BUFX2_33
*52 BUFX2_32
*53 BUFX2_35
*54 BUFX2_34
*55 BUFX2_37
*56 BUFX2_36
*57 NOR2X1_11
*58 NOR2X1_10
*59 FILL_6_0_2
*60 NOR2X1_12
*61 DFFPOSX1_43
*62 FILL_6_0_1
*63 FILL_5_0_1
*64 FILL_5_0_0
*65 FILL_5_0_2
*66 OAI21X1_17
*67 OAI21X1_16
*68 OAI21X1_15
*69 OAI21X1_14
*70 OAI21X1_13
*71 OAI21X1_12
*72 OAI21X1_11
*73 OAI21X1_10
*74 OAI21X1_19
*75 OAI21X1_18
*76 NOR3X1_1
*77 NOR3X1_2
*78 NOR3X1_3
*79 INVX1_29
*80 INVX1_28
*81 INVX1_25
*82 INVX1_24
*83 INVX1_27
*84 INVX1_26
*85 INVX1_21
*86 INVX1_20
*87 INVX1_23
*88 INVX1_22
*89 FILL_2_1
*90 DFFPOSX1_78
*91 DFFPOSX1_79
*92 DFFPOSX1_70
*93 DFFPOSX1_71
*94 DFFPOSX1_72
*95 DFFPOSX1_73
*96 DFFPOSX1_74
*97 DFFPOSX1_75
*98 DFFPOSX1_76
*99 DFFPOSX1_77
*100 FILL_8_0_0
*101 FILL_8_0_1
*102 FILL_8_0_2
*103 FILL_9_2
*104 FILL_9_1
*105 BUFX2_71
*106 BUFX2_70
*107 BUFX2_59
*108 BUFX2_58
*109 NAND3X1_15
*110 NAND3X1_14
*111 DFFPOSX1_8
*112 DFFPOSX1_9
*113 NAND3X1_13
*114 NAND3X1_12
*115 DFFPOSX1_4
*116 DFFPOSX1_5
*117 DFFPOSX1_6
*118 DFFPOSX1_7
*119 DFFPOSX1_1
*120 DFFPOSX1_2
*121 DFFPOSX1_3
*122 FILL_6_1
*123 FILL_4_2
*124 FILL_4_1
*125 OAI21X1_28
*126 OAI21X1_29
*127 OAI21X1_26
*128 OAI21X1_27
*129 OAI21X1_24
*130 OAI21X1_25
*131 OAI21X1_22
*132 OAI21X1_23
*133 OAI21X1_20
*134 OAI21X1_21
*135 DFFPOSX1_34
*136 DFFPOSX1_35
*137 DFFPOSX1_36
*138 DFFPOSX1_37
*139 DFFPOSX1_30
*140 DFFPOSX1_31
*141 DFFPOSX1_32
*142 DFFPOSX1_33
*143 DFFPOSX1_38
*144 DFFPOSX1_39
*145 INVX1_14
*146 INVX1_15
*147 INVX1_16
*148 INVX1_17
*149 INVX1_10
*150 INVX1_11
*151 INVX1_12
*152 INVX1_13
*153 INVX1_18
*154 INVX1_19
*155 FILL_8_1_1
*156 FILL_8_1_0
*157 FILL_8_1_2
*158 BUFX2_48
*159 BUFX2_49
*160 BUFX2_44
*161 BUFX2_45
*162 BUFX2_46
*163 BUFX2_47
*164 BUFX2_40
*165 BUFX2_41
*166 BUFX2_42
*167 BUFX2_43
*168 NAND3X1_9
*169 NAND3X1_8
*170 NAND3X1_5
*171 NAND3X1_4
*172 NAND3X1_7
*173 NAND3X1_6
*174 NAND3X1_1
*175 NAND3X1_3
*176 NAND3X1_2
*177 MUX2X1_1
*178 FILL_0_0_0
*179 FILL_0_0_1
*180 FILL_0_0_2
*181 DFFPOSX1_49
*182 DFFPOSX1_48
*183 DFFPOSX1_45
*184 DFFPOSX1_44
*185 DFFPOSX1_47
*186 DFFPOSX1_46
*187 DFFPOSX1_41
*188 DFFPOSX1_40
*189 FILL_6_0_0
*190 DFFPOSX1_42
*191 BUFX2_13
*192 BUFX2_12
*193 BUFX2_11
*194 BUFX2_10
*195 BUFX2_17
*196 BUFX2_16
*197 BUFX2_15
*198 BUFX2_14
*199 BUFX2_19
*200 BUFX2_18
*201 INVX1_2
*202 INVX1_3
*203 INVX1_1
*204 INVX1_6
*205 INVX1_7
*206 INVX1_4
*207 INVX1_5
*208 INVX1_8
*209 INVX1_9
*210 AOI21X1_4
*211 AOI21X1_3
*212 AOI21X1_2
*213 AOI21X1_1
*214 BUFX4_11
*215 BUFX4_10
*216 BUFX4_13
*217 BUFX4_12
*218 BUFX4_15
*219 BUFX4_14
*220 BUFX4_17
*221 BUFX4_16
*222 OAI21X1_39
*223 OAI21X1_38
*224 OAI21X1_35
*225 OAI21X1_34
*226 OAI21X1_37
*227 OAI21X1_36
*228 OAI21X1_31
*229 OAI21X1_30
*230 OAI21X1_33
*231 OAI21X1_32
*232 OAI21X1_7
*233 OAI21X1_6
*234 OAI21X1_5
*235 OAI21X1_4
*236 OAI21X1_3
*237 OAI21X1_2
*238 OAI21X1_1
*239 OAI21X1_9
*240 OAI21X1_8
*241 BUFX4_9
*242 BUFX4_8
*243 BUFX4_5
*244 BUFX4_4
*245 BUFX4_7
*246 BUFX4_6
*247 BUFX4_1
*248 FILL_4_0_1
*249 FILL_4_0_2
*250 BUFX4_2
*251 BUFX2_9
*252 BUFX2_8
*253 BUFX2_7
*254 BUFX2_6
*255 BUFX2_5
*256 BUFX2_4
*257 BUFX2_3
*258 BUFX2_2
*259 BUFX2_1
*260 FILL_0_1_1
*261 FILL_0_1_0
*262 FILL_0_1_2
*263 FILL_6_1_2
*264 FILL_6_1_1
*265 FILL_6_1_0
*266 BUFX2_57
*267 BUFX2_56
*268 BUFX2_55
*269 BUFX2_54
*270 BUFX2_53
*271 BUFX2_52
*272 BUFX2_51
*273 BUFX2_50
*274 INVX2_1
*275 AOI22X1_1
*276 INVX4_1
*277 OAI21X1_44
*278 OAI21X1_45
*279 OAI21X1_46
*280 OAI21X1_47
*281 OAI21X1_40
*282 OAI21X1_41
*283 OAI21X1_42
*284 OAI21X1_43
*285 OAI21X1_48
*286 OAI21X1_49
*287 DFFPOSX1_52
*288 DFFPOSX1_53
*289 DFFPOSX1_50
*290 DFFPOSX1_51
*291 DFFPOSX1_56
*292 DFFPOSX1_57
*293 DFFPOSX1_54
*294 DFFPOSX1_55
*295 DFFPOSX1_58
*296 DFFPOSX1_59
*297 BUFX2_26
*298 BUFX2_27
*299 BUFX2_24
*300 BUFX2_25
*301 BUFX2_22
*302 BUFX2_23
*303 BUFX2_20
*304 BUFX2_21
*305 BUFX2_28
*306 BUFX2_29
*307 FILL_3_1_2
*308 FILL_3_1_0
*309 FILL_3_1_1
*310 FILL_1_0_1
*311 FILL_1_0_0
*312 FILL_1_0_2
*313 FILL_4_1_1
*314 FILL_4_1_0
*315 FILL_4_1_2
*316 NAND2X1_4
*317 NAND2X1_5
*318 NAND2X1_6
*319 NAND2X1_1
*320 NAND2X1_2
*321 NAND2X1_3
*322 FILL_7_0_2
*323 FILL_7_0_1
*324 FILL_7_0_0
*325 DFFPOSX1_81
*326 DFFPOSX1_80
*327 DFFPOSX1_83
*328 DFFPOSX1_82
*329 DFFPOSX1_85
*330 DFFPOSX1_84
*331 DFFPOSX1_86
*332 NAND3X1_11
*333 NAND3X1_10
*334 BUFX2_39
*335 BUFX2_31
*336 NOR2X1_8
*337 DFFPOSX1_18
*338 DFFPOSX1_19
*339 DFFPOSX1_16
*340 DFFPOSX1_17
*341 DFFPOSX1_14
*342 DFFPOSX1_15
*343 DFFPOSX1_12
*344 DFFPOSX1_13
*345 DFFPOSX1_10
*346 DFFPOSX1_11
*347 FILL_2_1_2
*348 FILL_2_1_1
*349 FILL_2_1_0
*350 FILL_9_1_0
*351 FILL_9_1_1
*352 FILL_9_1_2
*353 FILL_5_1
*354 INVX1_30
*355 INVX1_31
*356 DFFPOSX1_69
*357 DFFPOSX1_68
*358 DFFPOSX1_63
*359 DFFPOSX1_62
*360 DFFPOSX1_61
*361 DFFPOSX1_60
*362 DFFPOSX1_67
*363 DFFPOSX1_66
*364 DFFPOSX1_65
*365 DFFPOSX1_64
*366 BUFX2_62
*367 BUFX2_63
*368 BUFX2_60
*369 BUFX2_61
*370 BUFX2_66
*371 BUFX2_67
*372 BUFX2_64
*373 BUFX2_65
*374 BUFX2_68
*375 BUFX2_69
*376 _2_<6>
*377 alu.of_out
*378 _3_<6>
*379 _41_
*380 _10_
*381 _8_<12>
*382 _82_
*383 _4_<7>
*384 _79_
*385 addr_o<4>
*386 _3_<3>
*387 state<2>
*388 _34_
*389 data_o<7>
*390 op_zf
*391 _1_<2>
*392 _91_<7>
*393 _26_
*394 addr_o<13>
*395 _5_<5>
*396 alu_res<1>
*397 _18_
*398 ac_sel<0>
*399 clk_i
*400 _71_
*401 autocarry
*402 _6_<3>
*403 _55_
*404 _1_<13>
*405 _66_
*406 _42_
*407 _17_
*408 _14_
*409 addr_o<14>
*410 _93_
*411 addr_o<5>
*412 _78_
*413 _5_<6>
*414 addr_o<9>
*415 _38_
*416 _91_<15>
*417 addr_o<1>
*418 state<1>
*419 _1_<1>
*420 _90_
*421 _80_
*422 _8_<7>
*423 _9_<1>
*424 alu_res<0>
*425 _37_
*426 _70_
*427 _8_<11>
*428 _27_
*429 addr_o<2>
*430 _67_
*431 _6_<0>
*432 data_i<0>
*433 _68__bF$buf0
*434 _68__bF$buf1
*435 _68__bF$buf2
*436 _68__bF$buf3
*437 _28_
*438 _1_<8>
*439 _2_<4>
*440 state<0>
*441 _60_
*442 addr_o<8>
*443 _3_<5>
*444 addr_o<0>
*445 data_o<4>
*446 addr_o<12>
*447 _2_<1>
*448 _88_
*449 _8_<0>
*450 _9_<0>
*451 _20_
*452 data_o<5>
*453 _49_
*454 _68_
*455 _6_<1>
*456 op_cf
*457 _32_
*458 _8_<10>
*459 _57_
*460 _12_
*461 _1_<14>
*462 data_i<1>
*463 _47_
*464 _5_<3>
*465 _81_
*466 op_sf
*467 _76_
*468 _11_
*469 _8_<6>
*470 _29_
*471 _1_<12>
*472 _3_<7>
*473 _61_
*474 _3_<4>
*475 _48_
*476 _89_
*477 _8_<9>
*478 data_i<3>
*479 _35_
*480 _8_<1>
*481 _1_<7>
*482 _2_<2>
*483 data_o<2>
*484 _19_
*485 alu_cf
*486 _21_
*487 rd_o
*488 _56_
*489 _69_
*490 _6_<6>
*491 _5_<4>
*492 data_i<2>
*493 _40_
*494 _54_
*495 _1_<15>
*496 data_i<7>
*497 alu_res<6>
*498 _51_
*499 _77_
*500 _62_
*501 _5_<2>
*502 clk_i_bF$buf8
*503 _8_<15>
*504 clk_i_bF$buf5
*505 clk_i_bF$buf4
*506 clk_i_bF$buf7
*507 clk_i_bF$buf6
*508 clk_i_bF$buf1
*509 clk_i_bF$buf0
*510 clk_i_bF$buf3
*511 clk_i_bF$buf2
*512 _86_
*513 _0_<5>
*514 _3_<15>
*515 _8_<3>
*516 _59_
*517 _8_<2>
*518 _9_<2>
*519 addr_o<6>
*520 _7_<7>
*521 _22_
*522 data_o<3>
*523 _8_<4>
*524 _1_<6>
*525 _3_<11>
*526 addr_o<15>
*527 _45_
*528 _0_<2>
*529 _0_<0>
*530 _30_
*531 _6_<7>
*532 pg_zf_bF$buf3
*533 pg_zf_bF$buf2
*534 pg_zf_bF$buf1
*535 pg_zf_bF$buf0
*536 pg_zf_bF$buf6
*537 pg_zf_bF$buf5
*538 pg_zf_bF$buf4
*539 _0_<4>
*540 addr_o<10>
*541 _50_
*542 _1_<9>
*543 _74_
*544 _5_<1>
*545 _8_<8>
*546 _63_
*547 _1_<10>
*548 _87_
*549 data_o<0>
*550 _2_<5>
*551 _8_<5>
*552 _58_
*553 alu_res<5>
*554 ac_which<2>
*555 _23_
*556 data_i<4>
*557 autocarry_next
*558 alu_res<4>
*559 _5_<7>
*560 _6_<4>
*561 addr_o<7>
*562 _1_<5>
*563 _33_
*564 _0_<3>
*565 gnd
*566 _3_<12>
*567 _46_
*568 _13_
*569 _1_<11>
*570 _43_
*571 _64_
*572 addr_o<11>
*573 _84_
*574 state<4>
*575 _16_
*576 _3_<14>
*577 _3_<1>
*578 data_o<1>
*579 _2_<7>
*580 _75_
*581 pg_zf
*582 alu_res<3>
*583 _1_<4>
*584 rst_i
*585 _3_<10>
*586 _3_<9>
*587 _9_<4>
*588 _6_<5>
*589 prev_cf
*590 _36_
*591 _24_
*592 _92_<7>
*593 _3_<2>
*594 _8_<14>
*595 _53_
*596 _73_
*597 _2_<3>
*598 data_i<5>
*599 _39_
*600 _52_
*601 _65_
*602 _15_
*603 addr_o<3>
*604 _3_<0>
*605 _85_
*606 _83_
*607 state<3>
*608 wr_o
*609 alu_res<2>
*610 _1_<3>
*611 data_o<6>
*612 _31_
*613 _3_<8>
*614 _9_<3>
*615 data_i<6>
*616 _1_<0>
*617 _3_<13>
*618 _2_<0>
*619 _25_
*620 _44_
*621 _6_<2>
*622 _5_<0>
*623 _0_<1>
*624 _8_<13>
*625 _72_

*PORTS
*1 I
*2 I


*END

*D_NET *399 3038.792265

*CONN
*I *241:A I *L 13.9855
*I *242:A I *L 13.9855
*I *245:A I *L 13.9855
*I *246:A I *L 13.9855
*I *243:A I *L 13.9855
*I *244:A I *L 13.9855
*I *8:A I *L 13.9855
*I *250:A I *L 13.9855
*I *247:A I *L 13.9855
*N *399:10 *C
*N *399:11 *C
*N *399:12 *C
*N *399:13 *C
*N *399:14 *C
*N *399:15 *C
*N *399:16 *C
*N *399:17 *C
*N *399:18 *C
*N *399:19 *C
*N *399:20 *C
*N *399:21 *C
*N *399:22 *C
*N *399:23 *C
*N *399:24 *C
*N *399:25 *C
*N *399:26 *C
*N *399:27 *C
*N *399:28 *C
*N *399:29 *C
*N *399:30 *C

*CAP
1 *241:A 13.9855
2 *242:A 13.9855
3 *245:A 13.9855
4 *246:A 13.9855
5 *243:A 13.9855
6 *244:A 13.9855
7 *8:A 13.9855
8 *250:A 13.9855
9 *247:A 13.9855
10 *399:10 296.456685
11 *399:11 333.512685
12 *399:12 101.912685
13 *399:13 287.192685
14 *399:14 18.536685
15 *399:15 166.760685
16 *399:16 213.080685
17 *399:17 26.289855
18 *399:18 26.289855
19 *399:19 91.989855
20 *399:20 26.289855
21 *399:21 118.269855
22 *399:22 26.289855
23 *399:23 275.949855
24 *399:24 131.409855
25 *399:25 13.149855
26 *399:26 131.409855
27 *399:27 10.521855
28 *399:28 499.329855
29 *399:29 52.569855
30 *399:30 65.709855

*RES

*END

*D_NET *502 1565.21546

*CONN
*I *287:CLK I *L 27.9235
*I *118:CLK I *L 27.9235
*I *99:CLK I *L 27.9235
*I *356:CLK I *L 27.9235
*I *362:CLK I *L 27.9235
*I *364:CLK I *L 27.9235
*I *363:CLK I *L 27.9235
*I *117:CLK I *L 27.9235
*I *361:CLK I *L 27.9235
*I *292:CLK I *L 27.9235
*I *247:Y O *D BUFX4
*N *502:12 *C
*N *502:13 *C
*N *502:14 *C
*N *502:15 *C
*N *502:16 *C
*N *502:17 *C
*N *502:18 *C
*N *502:19 *C
*N *502:20 *C
*N *502:21 *C
*N *502:22 *C
*N *502:23 *C

*CAP
1 *287:CLK 27.9235
2 *118:CLK 27.9235
3 *99:CLK 27.9235
4 *356:CLK 27.9235
5 *362:CLK 27.9235
6 *364:CLK 27.9235
7 *363:CLK 27.9235
8 *117:CLK 27.9235
9 *361:CLK 27.9235
10 *292:CLK 27.9235
11 *247:Y 0.0
12 *502:12 14.63771
13 *502:13 0.92771
14 *502:14 83.384685
15 *502:15 138.968685
16 *502:16 101.912685
17 *502:17 78.849855
18 *502:18 91.989855
19 *502:19 157.689855
20 *502:20 78.849855
21 *502:21 183.969855
22 *502:22 91.989855
23 *502:23 262.809855

*RES
1 *247:Y *502:12 149.373333333
2 *502:12 *502:13 42.7066666667
3 *502:14 *502:12 384.04
4 *117:CLK *502:14 234.706666667
5 *363:CLK *356:CLK 1280.04
6 *361:CLK *502:14 448.04
7 *362:CLK *502:14 192.04
8 *502:14 *502:16 2.70666666667
9 *364:CLK *362:CLK 128.04
10 *287:CLK *364:CLK 85.3733333333
11 *292:CLK *117:CLK 554.706666667
12 *118:CLK *99:CLK 554.706666667

*END

*D_NET *506 1462.234435

*CONN
*I *188:CLK I *L 27.9235
*I *119:CLK I *L 27.9235
*I *142:CLK I *L 27.9235
*I *328:CLK I *L 27.9235
*I *136:CLK I *L 27.9235
*I *327:CLK I *L 27.9235
*I *138:CLK I *L 27.9235
*I *28:CLK I *L 27.9235
*I *330:CLK I *L 27.9235
*I *338:CLK I *L 27.9235
*I *250:Y O *D BUFX4
*N *506:12 *C
*N *506:13 *C
*N *506:14 *C
*N *506:15 *C
*N *506:16 *C
*N *506:17 *C
*N *506:18 *C
*N *506:19 *C
*N *506:20 *C
*N *506:21 *C
*N *506:22 *C
*N *506:23 *C
*N *506:24 *C

*CAP
1 *188:CLK 27.9235
2 *119:CLK 27.9235
3 *142:CLK 27.9235
4 *328:CLK 27.9235
5 *136:CLK 27.9235
6 *327:CLK 27.9235
7 *138:CLK 27.9235
8 *28:CLK 27.9235
9 *330:CLK 27.9235
10 *338:CLK 27.9235
11 *250:Y 0.0
12 *506:12 83.384685
13 *506:13 111.176685
14 *506:14 111.176685
15 *506:15 101.912685
16 *506:16 52.569855
17 *506:17 39.429855
18 *506:18 13.149855
19 *506:19 91.989855
20 *506:20 13.149855
21 *506:21 78.849855
22 *506:22 65.709855
23 *506:23 170.829855
24 *506:24 249.669855

*RES
1 *142:CLK *188:CLK 554.706666667
2 *506:12 *250:Y 490.706666667
3 *250:Y *188:CLK 298.706666667
4 *330:CLK *506:13 64.04
5 *506:13 *506:12 512.04
6 *28:CLK *506:14 362.706666667
7 *136:CLK *506:15 64.04
8 *506:15 *506:13 512.04
9 *338:CLK *506:16 362.706666667
10 *328:CLK *506:16 405.373333333
11 *138:CLK *506:17 149.373333333
12 *327:CLK *506:17 192.04
13 *119:CLK *506:18 320.04

*END

*D_NET *507 1283.01112

*CONN
*I *289:CLK I *L 27.9235
*I *97:CLK I *L 27.9235
*I *190:CLK I *L 27.9235
*I *141:CLK I *L 27.9235
*I *296:CLK I *L 27.9235
*I *343:CLK I *L 27.9235
*I *116:CLK I *L 27.9235
*I *144:CLK I *L 27.9235
*I *27:CLK I *L 27.9235
*I *344:CLK I *L 27.9235
*I *8:Y O *D BUFX4
*N *507:12 *C
*N *507:13 *C
*N *507:14 *C
*N *507:15 *C
*N *507:16 *C
*N *507:17 *C
*N *507:18 *C
*N *507:19 *C
*N *507:20 *C
*N *507:21 *C
*N *507:22 *C
*N *507:23 *C
*N *507:24 *C
*N *507:25 *C

*CAP
1 *289:CLK 27.9235
2 *97:CLK 27.9235
3 *190:CLK 27.9235
4 *141:CLK 27.9235
5 *296:CLK 27.9235
6 *343:CLK 27.9235
7 *116:CLK 27.9235
8 *144:CLK 27.9235
9 *27:CLK 27.9235
10 *344:CLK 27.9235
11 *8:Y 0.0
12 *507:12 55.592685
13 *507:13 27.800685
14 *507:14 101.912685
15 *507:15 120.440685
16 *507:16 27.800685
17 *507:17 13.149855
18 *507:18 65.709855
19 *507:19 144.549855
20 *507:20 13.149855
21 *507:21 78.849855
22 *507:22 170.829855
23 *507:23 91.989855
24 *507:24 13.149855
25 *507:25 78.849855

*RES
1 *344:CLK *116:CLK 1280.04
2 *116:CLK *8:Y 533.373333333
3 *507:15 *507:13 586.706666667
4 *507:13 *116:CLK 192.04
5 *343:CLK *27:CLK 768.04
6 *27:CLK *190:CLK 533.373333333
7 *144:CLK *27:CLK 768.04
8 *141:CLK *144:CLK 533.373333333
9 *296:CLK *289:CLK 85.3733333333
10 *289:CLK *507:14 448.04
11 *507:15 *97:CLK 64.04

*END

*D_NET *504 1714.102445

*CONN
*I *95:CLK I *L 27.9235
*I *139:CLK I *L 27.9235
*I *19:CLK I *L 27.9235
*I *20:CLK I *L 27.9235
*I *137:CLK I *L 27.9235
*I *121:CLK I *L 27.9235
*I *345:CLK I *L 27.9235
*I *23:CLK I *L 27.9235
*I *182:CLK I *L 27.9235
*I *96:CLK I *L 27.9235
*I *244:Y O *D BUFX4
*N *504:12 *C
*N *504:13 *C
*N *504:14 *C
*N *504:15 *C
*N *504:16 *C
*N *504:17 *C
*N *504:18 *C
*N *504:19 *C
*N *504:20 *C
*N *504:21 *C
*N *504:22 *C
*N *504:23 *C
*N *504:24 *C
*N *504:25 *C
*N *504:26 *C
*N *504:27 *C
*N *504:28 *C
*N *504:29 *C

*CAP
1 *95:CLK 27.9235
2 *139:CLK 27.9235
3 *19:CLK 27.9235
4 *20:CLK 27.9235
5 *137:CLK 27.9235
6 *121:CLK 27.9235
7 *345:CLK 27.9235
8 *23:CLK 27.9235
9 *182:CLK 27.9235
10 *96:CLK 27.9235
11 *244:Y 0.0
12 *504:12 0.92771
13 *504:13 74.04771
14 *504:14 0.92771
15 *504:15 166.760685
16 *504:16 138.968685
17 *504:17 83.384685
18 *504:18 26.289855
19 *504:19 10.521855
20 *504:20 65.709855
21 *504:21 105.129855
22 *504:22 91.989855
23 *504:23 13.149855
24 *504:24 157.689855
25 *504:25 13.149855
26 *504:26 157.689855
27 *504:27 78.849855
28 *504:28 13.149855
29 *504:29 236.529855

*RES
1 *504:12 *504:13 2.70666666667
2 *504:12 *244:Y 152.04
3 *504:14 *95:CLK 64.04
4 *504:14 *345:CLK 64.04
5 *504:14 *95:CLK 64.04
6 *504:14 *504:16 426.706666667
7 *504:16 *504:17 2.70666666667
8 *23:CLK *504:23 64.04
9 *504:16 *182:CLK 1088.04
10 *182:CLK *121:CLK 1664.04
11 *504:20 *182:CLK 1088.04
12 *139:CLK *20:CLK 640.04
13 *20:CLK *182:CLK 533.373333333
14 *137:CLK *20:CLK 640.04
15 *19:CLK *137:CLK 341.373333333
16 *504:21 *96:CLK 149.373333333
17 *96:CLK *504:23 234.706666667
18 *504:21 *504:23 960.04

*END

*D_NET *505 1411.57318

*CONN
*I *359:CLK I *L 27.9235
*I *25:CLK I *L 27.9235
*I *90:CLK I *L 27.9235
*I *120:CLK I *L 27.9235
*I *94:CLK I *L 27.9235
*I *112:CLK I *L 27.9235
*I *291:CLK I *L 27.9235
*I *91:CLK I *L 27.9235
*I *61:CLK I *L 27.9235
*I *185:CLK I *L 27.9235
*I *243:Y O *D BUFX4
*N *505:12 *C
*N *505:13 *C
*N *505:14 *C
*N *505:15 *C
*N *505:16 *C
*N *505:17 *C
*N *505:18 *C
*N *505:19 *C
*N *505:20 *C
*N *505:21 *C
*N *505:22 *C
*N *505:23 *C
*N *505:24 *C
*N *505:25 *C
*N *505:26 *C
*N *505:27 *C
*N *505:28 *C
*N *505:29 *C

*CAP
1 *359:CLK 27.9235
2 *25:CLK 27.9235
3 *90:CLK 27.9235
4 *120:CLK 27.9235
5 *94:CLK 27.9235
6 *112:CLK 27.9235
7 *291:CLK 27.9235
8 *91:CLK 27.9235
9 *61:CLK 27.9235
10 *185:CLK 27.9235
11 *243:Y 0.0
12 *505:12 0.92771
13 *505:13 0.92771
14 *505:14 6.41171
15 *505:15 0.92771
16 *505:16 6.41171
17 *505:17 6.41171
18 *505:18 55.592685
19 *505:19 111.176685
20 *505:20 26.289855
21 *505:21 10.521855
22 *505:22 183.969855
23 *505:23 78.849855
24 *505:24 118.269855
25 *505:25 131.409855
26 *505:26 78.849855
27 *505:27 118.269855
28 *505:28 131.409855
29 *505:29 65.709855

*RES
1 *505:12 *120:CLK 149.373333333
2 *505:12 *505:13 42.7066666667
3 *505:12 *243:Y 149.373333333
4 *94:CLK *505:13 192.04
5 *505:12 *505:15 2.70666666667
6 *112:CLK *505:15 149.373333333
7 *505:12 *505:17 2.70666666667
8 *291:CLK *505:18 320.04
9 *505:18 *505:19 18.7066666667
10 *91:CLK *505:18 64.04
11 *505:18 *505:18 320.04
12 *505:18 *505:22 2.70666666667
13 *90:CLK *61:CLK 170.706666667
14 *61:CLK *505:23 40.04
15 *185:CLK *505:24 64.04
16 *505:24 *505:25 18.7066666667
17 *25:CLK *505:26 149.373333333
18 *359:CLK *90:CLK 512.04

*END

*D_NET *510 1250.11391

*CONN
*I *93:CLK I *L 27.9235
*I *365:CLK I *L 27.9235
*I *293:CLK I *L 27.9235
*I *357:CLK I *L 27.9235
*I *358:CLK I *L 27.9235
*I *288:CLK I *L 27.9235
*I *360:CLK I *L 27.9235
*I *98:CLK I *L 27.9235
*I *92:CLK I *L 27.9235
*I *246:Y O *D BUFX4
*N *510:11 *C
*N *510:12 *C
*N *510:13 *C
*N *510:14 *C
*N *510:15 *C
*N *510:16 *C
*N *510:17 *C
*N *510:18 *C
*N *510:19 *C
*N *510:20 *C
*N *510:21 *C

*CAP
1 *93:CLK 27.9235
2 *365:CLK 27.9235
3 *293:CLK 27.9235
4 *357:CLK 27.9235
5 *358:CLK 27.9235
6 *288:CLK 27.9235
7 *360:CLK 27.9235
8 *98:CLK 27.9235
9 *92:CLK 27.9235
10 *246:Y 0.0
11 *510:11 14.63771
12 *510:12 92.648685
13 *510:13 83.384685
14 *510:14 120.440685
15 *510:15 129.704685
16 *510:16 111.176685
17 *510:17 78.849855
18 *510:18 157.689855
19 *510:19 91.989855
20 *510:20 91.989855
21 *510:21 26.289855

*RES
1 *246:Y *358:CLK 256.04
2 *358:CLK *98:CLK 85.3733333333
3 *293:CLK *358:CLK 170.706666667
4 *510:14 *510:26 373.373333333
5 *510:13 *358:CLK 789.373333333
6 *365:CLK *510:13 192.04
7 *357:CLK *92:CLK 682.706666667
8 *92:CLK *98:CLK 341.373333333
9 *93:CLK *510:14 490.706666667
10 *360:CLK *510:14 1557.37333333
11 *288:CLK *360:CLK 512.04

*END

*D_NET *511 1261.219435

*CONN
*I *329:CLK I *L 27.9235
*I *290:CLK I *L 27.9235
*I *115:CLK I *L 27.9235
*I *331:CLK I *L 27.9235
*I *325:CLK I *L 27.9235
*I *111:CLK I *L 27.9235
*I *295:CLK I *L 27.9235
*I *181:CLK I *L 27.9235
*I *326:CLK I *L 27.9235
*I *245:Y O *D BUFX4
*N *511:11 *C
*N *511:12 *C
*N *511:13 *C
*N *511:14 *C
*N *511:15 *C
*N *511:16 *C
*N *511:17 *C
*N *511:18 *C
*N *511:19 *C
*N *511:20 *C
*N *511:21 *C
*N *511:22 *C
*N *511:23 *C
*N *511:24 *C
*N *511:25 *C
*N *511:26 *C
*N *511:27 *C

*CAP
1 *329:CLK 27.9235
2 *290:CLK 27.9235
3 *115:CLK 27.9235
4 *331:CLK 27.9235
5 *325:CLK 27.9235
6 *111:CLK 27.9235
7 *295:CLK 27.9235
8 *181:CLK 27.9235
9 *326:CLK 27.9235
10 *245:Y 0.0
11 *511:11 14.63771
12 *511:12 14.63771
13 *511:13 15.55171
14 *511:14 0.92771
15 *511:15 55.592685
16 *511:16 64.856685
17 *511:17 64.856685
18 *511:18 83.384685
19 *511:19 55.592685
20 *511:20 166.760685
21 *511:21 65.709855
22 *511:22 13.149855
23 *511:23 26.289855
24 *511:24 13.149855
25 *511:25 157.689855
26 *511:26 105.129855
27 *511:27 91.989855

*RES
1 *511:13 *111:CLK 64.04
2 *511:13 *511:13 53.3733333333
3 *511:13 *511:14 256.04
4 *511:14 *111:CLK 64.04
5 *511:15 *115:CLK 320.04
6 *115:CLK *511:14 618.706666667
7 *331:CLK *511:16 21.3733333333
8 *511:16 *511:17 42.7066666667
9 *511:16 *245:Y 149.373333333
10 *181:CLK *331:CLK 85.3733333333
11 *326:CLK *181:CLK 213.373333333
12 *511:18 *329:CLK 64.04
13 *329:CLK *326:CLK 469.373333333
14 *290:CLK *295:CLK 512.04
15 *295:CLK *511:19 704.04
16 *325:CLK *181:CLK 768.04

*END

*D_NET *508 1267.678105

*CONN
*I *183:CLK I *L 27.9235
*I *341:CLK I *L 27.9235
*I *346:CLK I *L 27.9235
*I *187:CLK I *L 27.9235
*I *26:CLK I *L 27.9235
*I *340:CLK I *L 27.9235
*I *135:CLK I *L 27.9235
*I *339:CLK I *L 27.9235
*I *337:CLK I *L 27.9235
*I *242:Y O *D BUFX4
*N *508:11 *C
*N *508:12 *C
*N *508:13 *C
*N *508:14 *C
*N *508:15 *C
*N *508:16 *C
*N *508:17 *C
*N *508:18 *C
*N *508:19 *C
*N *508:20 *C
*N *508:21 *C

*CAP
1 *183:CLK 27.9235
2 *341:CLK 27.9235
3 *346:CLK 27.9235
4 *187:CLK 27.9235
5 *26:CLK 27.9235
6 *340:CLK 27.9235
7 *135:CLK 27.9235
8 *339:CLK 27.9235
9 *337:CLK 27.9235
10 *242:Y 0.0
11 *508:11 14.63771
12 *508:12 6.41171
13 *508:13 46.328685
14 *508:14 74.120685
15 *508:15 138.968685
16 *508:16 157.689855
17 *508:17 157.689855
18 *508:18 65.709855
19 *508:19 118.269855
20 *508:20 170.829855
21 *508:21 65.709855

*RES
1 *135:CLK *508:11 1301.37333333
2 *508:11 *508:12 42.7066666667
3 *346:CLK *135:CLK 768.04
4 *508:13 *508:11 341.373333333
5 *339:CLK *508:13 64.04
6 *340:CLK *337:CLK 533.373333333
7 *26:CLK *242:Y 469.373333333
8 *242:Y *508:14 125.373333333
9 *183:CLK *135:CLK 640.04
10 *341:CLK *187:CLK 533.373333333

*END

*D_NET *509 1268.218935

*CONN
*I *184:CLK I *L 27.9235
*I *294:CLK I *L 27.9235
*I *24:CLK I *L 27.9235
*I *342:CLK I *L 27.9235
*I *143:CLK I *L 27.9235
*I *140:CLK I *L 27.9235
*I *22:CLK I *L 27.9235
*I *21:CLK I *L 27.9235
*I *186:CLK I *L 27.9235
*I *241:Y O *D BUFX4
*N *509:11 *C
*N *509:12 *C
*N *509:13 *C
*N *509:14 *C
*N *509:15 *C
*N *509:16 *C
*N *509:17 *C
*N *509:18 *C
*N *509:19 *C
*N *509:20 *C
*N *509:21 *C
*N *509:22 *C
*N *509:23 *C

*CAP
1 *184:CLK 27.9235
2 *294:CLK 27.9235
3 *24:CLK 27.9235
4 *342:CLK 27.9235
5 *143:CLK 27.9235
6 *140:CLK 27.9235
7 *22:CLK 27.9235
8 *21:CLK 27.9235
9 *186:CLK 27.9235
10 *241:Y 0.0
11 *509:11 46.328685
12 *509:12 64.856685
13 *509:13 111.176685
14 *509:14 111.176685
15 *509:15 39.429855
16 *509:16 65.709855
17 *509:17 105.129855
18 *509:18 26.289855
19 *509:19 91.989855
20 *509:20 13.149855
21 *509:21 91.989855
22 *509:22 144.549855
23 *509:23 105.129855

*RES
1 *294:CLK *509:11 64.04
2 *509:11 *509:12 213.373333333
3 *509:12 *241:Y 106.706666667
4 *21:CLK *294:CLK 256.04
5 *509:12 *509:14 106.706666667
6 *509:14 *509:12 298.706666667
7 *143:CLK *186:CLK 384.04
8 *186:CLK *24:CLK 128.04
9 *140:CLK *22:CLK 256.04
10 *509:15 *186:CLK 192.04
11 *342:CLK *22:CLK 896.04
12 *184:CLK *342:CLK 128.04

*END

*D_NET *454 1108.72821

*CONN
*I *113:Y O *D NAND3X1
*I *216:A I *L 13.9855
*I *217:A I *L 13.9855
*I *214:A I *L 13.9855
*I *215:A I *L 13.9855
*N *454:6 *C
*N *454:7 *C
*N *454:8 *C
*N *454:9 *C
*N *454:10 *C
*N *454:11 *C
*N *454:12 *C
*N *454:13 *C
*N *454:14 *C

*CAP
1 *113:Y 0.0
2 *216:A 13.9855
3 *217:A 13.9855
4 *214:A 13.9855
5 *215:A 13.9855
6 *454:6 14.63771
7 *454:7 361.304685
8 *454:8 9.272685
9 *454:9 13.149855
10 *454:10 10.521855
11 *454:11 262.809855
12 *454:12 39.429855
13 *454:13 118.269855
14 *454:14 223.389855

*RES
1 *214:A *454:6 149.373333333
2 *214:A *454:6 192.04
3 *214:A *215:A 42.7066666667
4 *454:15 *454:9 160.04
5 *454:9 *454:10 1664.04
6 *217:A *113:Y 533.373333333
7 *113:Y *454:11 64.04
8 *454:11 *454:9 42.7066666667
9 *216:A *454:11 21.3733333333

*END

*D_NET *436 654.861125

*CONN
*I *225:A I *L 17.346
*I *278:B I *L 18.2038
*I *277:B I *L 18.2038
*I *230:A I *L 17.346
*I *279:B I *L 18.2038
*I *215:Y O *D BUFX4
*N *436:7 *C
*N *436:8 *C
*N *436:9 *C
*N *436:10 *C
*N *436:11 *C
*N *436:12 *C
*N *436:13 *C
*N *436:14 *C
*N *436:15 *C
*N *436:16 *C

*CAP
1 *225:A 17.346
2 *278:B 18.2038
3 *277:B 18.2038
4 *230:A 17.346
5 *279:B 18.2038
6 *215:Y 0.0
7 *436:7 14.63771
8 *436:8 37.064685
9 *436:9 27.800685
10 *436:10 101.912685
11 *436:11 55.592685
12 *436:12 13.149855
13 *436:13 13.149855
14 *436:14 144.549855
15 *436:15 144.549855
16 *436:16 13.149855

*RES
1 *225:A *436:7 21.3733333333
2 *436:7 *436:8 170.706666667
3 *436:8 *215:Y 21.3733333333
4 *215:Y *436:9 64.04
5 *279:B *436:7 192.04
6 *277:B *279:B 512.04
7 *278:B *230:A 170.706666667
8 *230:A *277:B 170.706666667

*END

*D_NET *435 633.11693

*CONN
*I *224:A I *L 17.346
*I *284:B I *L 18.2038
*I *283:B I *L 18.2038
*I *228:A I *L 17.346
*I *231:A I *L 17.346
*I *214:Y O *D BUFX4
*N *435:7 *C
*N *435:8 *C
*N *435:9 *C
*N *435:10 *C
*N *435:11 *C
*N *435:12 *C
*N *435:13 *C
*N *435:14 *C

*CAP
1 *224:A 17.346
2 *284:B 18.2038
3 *283:B 18.2038
4 *228:A 17.346
5 *231:A 17.346
6 *214:Y 0.0
7 *435:7 64.856685
8 *435:8 148.232685
9 *435:9 55.592685
10 *435:10 13.149855
11 *435:11 65.709855
12 *435:12 13.149855
13 *435:13 91.989855
14 *435:14 91.989855

*RES
1 *284:B *435:7 106.706666667
2 *435:7 *435:8 298.706666667
3 *435:8 *214:Y 64.04
4 *283:B *231:A 85.3733333333
5 *231:A *435:7 704.04
6 *224:A *231:A 341.373333333
7 *435:9 *228:A 64.04

*END

*D_NET *434 620.697485

*CONN
*I *223:C I *L 12.9138
*I *227:A I *L 17.346
*I *109:B I *L 15.9247
*I *280:B I *L 18.2038
*I *217:Y O *D BUFX4
*N *434:6 *C
*N *434:7 *C
*N *434:8 *C
*N *434:9 *C
*N *434:10 *C
*N *434:11 *C
*N *434:12 *C
*N *434:13 *C
*N *434:14 *C

*CAP
1 *223:C 12.9138
2 *227:A 17.346
3 *109:B 15.9247
4 *280:B 18.2038
5 *217:Y 0.0
6 *434:6 27.800685
7 *434:7 46.328685
8 *434:8 166.760685
9 *434:9 91.989855
10 *434:10 13.149855
11 *434:11 52.569855
12 *434:12 26.289855
13 *434:13 39.429855
14 *434:14 91.989855

*RES
1 *280:B *227:A 170.706666667
2 *434:6 *434:7 128.04
3 *434:6 *280:B 64.04
4 *434:8 *217:Y 106.706666667
5 *217:Y *434:9 106.706666667
6 *223:C *434:10 21.3733333333
7 *434:10 *109:B 704.04
8 *109:B *434:8 64.04

*END

*D_NET *433 754.73093

*CONN
*I *229:A I *L 17.346
*I *226:A I *L 17.346
*I *285:B I *L 18.2038
*I *282:B I *L 18.2038
*I *216:Y O *D BUFX4
*N *433:6 *C
*N *433:7 *C
*N *433:8 *C
*N *433:9 *C
*N *433:10 *C
*N *433:11 *C
*N *433:12 *C
*N *433:13 *C

*CAP
1 *229:A 17.346
2 *226:A 17.346
3 *285:B 18.2038
4 *282:B 18.2038
5 *216:Y 0.0
6 *433:6 83.384685
7 *433:7 37.064685
8 *433:8 287.192685
9 *433:9 13.149855
10 *433:10 170.829855
11 *433:11 39.429855
12 *433:12 39.429855
13 *433:13 13.149855

*RES
1 *433:6 *282:B 64.04
2 *282:B *216:Y 426.706666667
3 *433:7 *282:B 64.04
4 *433:7 *433:9 160.04
5 *433:9 *229:A 149.373333333
6 *433:10 *285:B 106.706666667
7 *285:B *226:A 1408.04
8 *226:A *433:9 21.3733333333

*END

*D_NET *581 8478.74451

*CONN
*I *91:Q O *D DFFPOSX1
*I *90:Q O *D DFFPOSX1
*I *99:Q O *D DFFPOSX1
*I *98:Q O *D DFFPOSX1
*I *97:Q O *D DFFPOSX1
*I *96:Q O *D DFFPOSX1
*I *95:Q O *D DFFPOSX1
*I *94:Q O *D DFFPOSX1
*I *93:Q O *D DFFPOSX1
*I *92:Q O *D DFFPOSX1
*I *356:Q O *D DFFPOSX1
*I *357:Q O *D DFFPOSX1
*I *362:Q O *D DFFPOSX1
*I *363:Q O *D DFFPOSX1
*I *364:Q O *D DFFPOSX1
*I *365:Q O *D DFFPOSX1
*I *358:Q O *D DFFPOSX1
*I *359:Q O *D DFFPOSX1
*I *360:Q O *D DFFPOSX1
*I *361:Q O *D DFFPOSX1
*I *296:Q O *D DFFPOSX1
*I *295:Q O *D DFFPOSX1
*I *292:Q O *D DFFPOSX1
*I *291:Q O *D DFFPOSX1
*I *294:Q O *D DFFPOSX1
*I *293:Q O *D DFFPOSX1
*I *288:Q O *D DFFPOSX1
*I *287:Q O *D DFFPOSX1
*I *290:Q O *D DFFPOSX1
*I *289:Q O *D DFFPOSX1
*I *181:Q O *D DFFPOSX1
*I *182:Q O *D DFFPOSX1
*I *185:Q O *D DFFPOSX1
*I *186:Q O *D DFFPOSX1
*I *183:Q O *D DFFPOSX1
*I *184:Q O *D DFFPOSX1
*I *61:Q O *D DFFPOSX1
*I *190:Q O *D DFFPOSX1
*I *187:Q O *D DFFPOSX1
*I *188:Q O *D DFFPOSX1
*I *144:Q O *D DFFPOSX1
*I *143:Q O *D DFFPOSX1
*I *138:Q O *D DFFPOSX1
*I *137:Q O *D DFFPOSX1
*I *136:Q O *D DFFPOSX1
*I *135:Q O *D DFFPOSX1
*I *142:Q O *D DFFPOSX1
*I *141:Q O *D DFFPOSX1
*I *140:Q O *D DFFPOSX1
*I *139:Q O *D DFFPOSX1
*I *27:Q O *D DFFPOSX1
*I *28:Q O *D DFFPOSX1
*I *19:Q O *D DFFPOSX1
*I *20:Q O *D DFFPOSX1
*I *21:Q O *D DFFPOSX1
*I *22:Q O *D DFFPOSX1
*I *23:Q O *D DFFPOSX1
*I *24:Q O *D DFFPOSX1
*I *25:Q O *D DFFPOSX1
*I *26:Q O *D DFFPOSX1
*I *338:Q O *D DFFPOSX1
*I *337:Q O *D DFFPOSX1
*I *340:Q O *D DFFPOSX1
*I *339:Q O *D DFFPOSX1
*I *342:Q O *D DFFPOSX1
*I *341:Q O *D DFFPOSX1
*I *344:Q O *D DFFPOSX1
*I *343:Q O *D DFFPOSX1
*I *346:Q O *D DFFPOSX1
*I *345:Q O *D DFFPOSX1
*I *112:Q O *D DFFPOSX1
*I *111:Q O *D DFFPOSX1
*I *118:Q O *D DFFPOSX1
*I *117:Q O *D DFFPOSX1
*I *116:Q O *D DFFPOSX1
*I *115:Q O *D DFFPOSX1
*I *121:Q O *D DFFPOSX1
*I *120:Q O *D DFFPOSX1
*I *257:A I *L 9.33171
*I *258:A I *L 9.33171
*I *220:A I *L 13.9855
*I *221:A I *L 13.9855
*I *259:A I *L 9.33171
*I *218:A I *L 13.9855
*I *219:A I *L 13.9855
*N *581:86 *C
*N *581:87 *C
*N *581:88 *C
*N *581:89 *C
*N *581:90 *C
*N *581:91 *C
*N *581:92 *C
*N *581:93 *C
*N *581:94 *C
*N *581:95 *C
*N *581:96 *C
*N *581:97 *C
*N *581:98 *C
*N *581:99 *C
*N *581:100 *C
*N *581:101 *C
*N *581:102 *C
*N *581:103 *C
*N *581:104 *C
*N *581:105 *C
*N *581:106 *C
*N *581:107 *C
*N *581:108 *C
*N *581:109 *C
*N *581:110 *C
*N *581:111 *C
*N *581:112 *C
*N *581:113 *C
*N *581:114 *C
*N *581:115 *C
*N *581:116 *C
*N *581:117 *C
*N *581:118 *C
*N *581:119 *C
*N *581:120 *C
*N *581:121 *C
*N *581:122 *C
*N *581:123 *C
*N *581:124 *C
*N *581:125 *C
*N *581:126 *C
*N *581:127 *C
*N *581:128 *C
*N *581:129 *C
*N *581:130 *C
*N *581:131 *C
*N *581:132 *C
*N *581:133 *C
*N *581:134 *C
*N *581:135 *C
*N *581:136 *C
*N *581:137 *C
*N *581:138 *C
*N *581:139 *C
*N *581:140 *C
*N *581:141 *C
*N *581:142 *C
*N *581:143 *C
*N *581:144 *C
*N *581:145 *C
*N *581:146 *C
*N *581:147 *C
*N *581:148 *C
*N *581:149 *C
*N *581:150 *C
*N *581:151 *C
*N *581:152 *C
*N *581:153 *C
*N *581:154 *C
*N *581:155 *C
*N *581:156 *C
*N *581:157 *C
*N *581:158 *C
*N *581:159 *C
*N *581:160 *C
*N *581:161 *C
*N *581:162 *C
*N *581:163 *C
*N *581:164 *C
*N *581:165 *C
*N *581:166 *C
*N *581:167 *C
*N *581:168 *C
*N *581:169 *C
*N *581:170 *C
*N *581:171 *C
*N *581:172 *C
*N *581:173 *C
*N *581:174 *C
*N *581:175 *C