*SPEF "IEEE 1481-2009"
*DESIGN "cpu"
*DATE "2019-05-22 01:31:34.277506"
*VENDOR "AUC_STUDENTS"
*PROGRAM "Def2Spef_Converter"
*VERSION "0.0"
*DESIGN_FLOW "PROJECT2_FLOW"
*DIVIDER /
*DELIMITER :
*BUS_DELIMITER <>
*T_UNIT 1 PS
*C_UNIT 1 FF
*R_UNIT 1 KOHM
*L_UNIT 1 UH

*NAME_MAP

*1 FILL_3_0_2
*2 FILL_3_0_1
*3 FILL_3_0_0
*4 OAI21X1_128
*5 OAI21X1_129
*6 NAND2X1_150
*7 NAND2X1_151
*8 NAND2X1_152
*9 NAND2X1_153
*10 FILL_3_2_1
*11 FILL_3_2_0
*12 NAND2X1_156
*13 FILL_3_2_2
*14 NAND2X1_158
*15 NAND2X1_159
*16 NAND2X1_58
*17 NAND2X1_59
*18 NAND2X1_52
*19 NAND2X1_53
*20 NAND2X1_50
*21 NAND2X1_51
*22 NAND2X1_56
*23 NAND2X1_57
*24 NAND2X1_54
*25 NAND2X1_55
*26 FILL_1_1_0
*27 FILL_1_1_1
*28 FILL_1_1_2
*29 BUFX4_33
*30 BUFX4_32
*31 BUFX4_31
*32 BUFX4_30
*33 BUFX4_37
*34 BUFX4_36
*35 BUFX4_35
*36 BUFX4_34
*37 BUFX4_39
*38 BUFX4_38
*39 OAI22X1_45
*40 OAI22X1_44
*41 OAI22X1_47
*42 OAI22X1_46
*43 OAI22X1_41
*44 OAI22X1_40
*45 OAI22X1_43
*46 AOI21X1_10
*47 OAI22X1_49
*48 OAI22X1_48
*49 AOI21X1_19
*50 AOI21X1_18
*51 NAND2X1_154
*52 NAND3X1_131
*53 NAND2X1_155
*54 NAND2X1_157
*55 FILL_2_0_2
*56 FILL_2_0_0
*57 FILL_2_0_1
*58 NAND3X1_130
*59 MUX2X1_29
*60 MUX2X1_28
*61 MUX2X1_23
*62 MUX2X1_22
*63 MUX2X1_21
*64 MUX2X1_20
*65 MUX2X1_27
*66 MUX2X1_26
*67 MUX2X1_25
*68 MUX2X1_24
*69 OAI21X1_26
*70 NAND2X1_230
*71 OAI21X1_24
*72 NAND2X1_232
*73 NAND2X1_235
*74 OAI21X1_23
*75 NAND2X1_237
*76 NAND2X1_236
*77 NOR2X1_64
*78 NOR2X1_65
*79 NOR2X1_66
*80 NOR2X1_67
*81 NOR2X1_60
*82 NOR2X1_61
*83 NOR2X1_62
*84 NOR2X1_63
*85 NOR2X1_68
*86 NOR2X1_69
*87 DFFPOSX1_96
*88 DFFPOSX1_97
*89 DFFPOSX1_94
*90 DFFPOSX1_95
*91 DFFPOSX1_92
*92 DFFPOSX1_93
*93 DFFPOSX1_90
*94 DFFPOSX1_91
*95 AOI21X1_125
*96 DFFPOSX1_99
*97 FILL_5_0_1
*98 FILL_5_0_0
*99 FILL_5_0_2
*100 OAI21X1_17
*101 OAI21X1_16
*102 AOI22X1_18
*103 OAI21X1_14
*104 OAI21X1_13
*105 OAI21X1_12
*106 OAI21X1_11
*107 OAI21X1_10
*108 AOI22X1_12
*109 AOI22X1_13
*110 AOI22X1_10
*111 AOI22X1_11
*112 AOI22X1_16
*113 AOI22X1_17
*114 OAI21X1_19
*115 AOI22X1_15
*116 NAND3X1_173
*117 OAI21X1_401
*118 OAI21X1_168
*119 OAI21X1_169
*120 DFFPOSX1_35
*121 OAI21X1_162
*122 OAI21X1_163
*123 OAI21X1_160
*124 OAI21X1_161
*125 OAI21X1_166
*126 NOR2X1_100
*127 OAI21X1_164
*128 OAI21X1_165
*129 NOR2X1_101
*130 OAI21X1_405
*131 OAI21X1_156
*132 OAI22X1_8
*133 OAI22X1_9
*134 OAI21X1_340
*135 OAI21X1_341
*136 OAI21X1_346
*137 OAI21X1_347
*138 OAI21X1_344
*139 OAI21X1_345
*140 OAI22X1_1
*141 OAI22X1_2
*142 OAI22X1_3
*143 OAI22X1_4
*144 OAI22X1_5
*145 OAI22X1_6
*146 OAI22X1_7
*147 INVX1_29
*148 INVX1_28
*149 INVX1_25
*150 INVX1_24
*151 INVX1_27
*152 INVX1_26
*153 INVX1_21
*154 INVX1_20
*155 INVX1_23
*156 INVX1_22
*157 NOR2X1_88
*158 NOR2X1_89
*159 OAI21X1_298
*160 OAI21X1_299
*161 NOR2X1_82
*162 NOR2X1_83
*163 NOR2X1_80
*164 NOR2X1_81
*165 NOR2X1_86
*166 NOR2X1_87
*167 OAI21X1_292
*168 NOR2X1_85
*169 INVX2_33
*170 DFFPOSX1_79
*171 INVX2_31
*172 INVX2_30
*173 INVX2_37
*174 INVX2_36
*175 INVX2_35
*176 INVX2_34
*177 DFFPOSX1_70
*178 DFFPOSX1_71
*179 INVX2_39
*180 INVX2_38
*181 DFFPOSX1_74
*182 DFFPOSX1_75
*183 DFFPOSX1_76
*184 DFFPOSX1_77
*185 FILL_9_2
*186 FILL_9_1
*187 FILL_17_1_0
*188 NAND3X1_168
*189 FILL_17_1_1
*190 INVX1_185
*191 INVX1_184
*192 INVX1_187
*193 INVX1_186
*194 INVX1_181
*195 FILL_17_1_2
*196 INVX1_183
*197 INVX1_182
*198 INVX1_189
*199 INVX1_188
*200 NAND2X1_165
*201 NAND2X1_164
*202 NAND2X1_167
*203 NAND2X1_166
*204 NAND2X1_161
*205 NAND2X1_160
*206 NAND2X1_163
*207 NAND2X1_162
*208 DFFPOSX1_107
*209 NAND2X1_169
*210 NAND2X1_168
*211 NAND2X1_49
*212 NAND2X1_48
*213 NAND2X1_41
*214 NAND2X1_40
*215 NAND2X1_43
*216 NAND2X1_42
*217 NAND2X1_45
*218 NAND2X1_44
*219 NAND2X1_47
*220 NAND2X1_46
*221 FILL_6_1
*222 FILL_6_2
*223 FILL_20_1
*224 FILL_20_2
*225 FILL_20_3
*226 FILL_22_2
*227 FILL_22_1
*228 NAND3X1_169
*229 AND2X2_18
*230 AND2X2_19
*231 AND2X2_16
*232 AND2X2_17
*233 AND2X2_14
*234 AND2X2_15
*235 AND2X2_12
*236 AND2X2_13
*237 AND2X2_10
*238 AND2X2_11
*239 OAI21X1_172
*240 FILL_2_1
*241 FILL_2_2
*242 NAND2X1_240
*243 MUX2X1_34
*244 MUX2X1_35
*245 MUX2X1_36
*246 MUX2X1_30
*247 MUX2X1_31
*248 MUX2X1_32
*249 MUX2X1_33
*250 OAI21X1_306
*251 FILL_8_1_0
*252 FILL_8_1_2
*253 AOI21X1_108
*254 AOI21X1_109
*255 NAND2X1_244
*256 OAI21X1_196
*257 AOI21X1_104
*258 AOI21X1_105
*259 NAND2X1_245
*260 AOI21X1_132
*261 AOI21X1_103
*262 NAND3X1_160
*263 NAND3X1_161
*264 NAND3X1_162
*265 NAND3X1_163
*266 NAND3X1_164
*267 NAND3X1_165
*268 OAI21X1_119
*269 OAI21X1_118
*270 OAI21X1_117
*271 OAI21X1_116
*272 OAI21X1_115
*273 OAI21X1_114
*274 OAI21X1_113
*275 OAI21X1_112
*276 OAI21X1_111
*277 OAI21X1_110
*278 OAI21X1_337
*279 OAI21X1_336
*280 OAI21X1_335
*281 OAI21X1_334
*282 OAI21X1_333
*283 NAND2X1_247
*284 OAI21X1_331
*285 OAI21X1_330
*286 OAI21X1_193
*287 OAI21X1_339
*288 OAI21X1_338
*289 AOI21X1_17
*290 AOI21X1_16
*291 OAI21X1_192
*292 AOI21X1_15
*293 AOI21X1_14
*294 DFFPOSX1_49
*295 DFFPOSX1_48
*296 DFFPOSX1_45
*297 DFFPOSX1_44
*298 DFFPOSX1_47
*299 DFFPOSX1_46
*300 DFFPOSX1_41
*301 DFFPOSX1_40
*302 DFFPOSX1_43
*303 DFFPOSX1_42
*304 BUFX2_13
*305 BUFX2_12
*306 OAI21X1_249
*307 BUFX2_10
*308 BUFX2_17
*309 BUFX2_16
*310 BUFX2_15
*311 BUFX2_14
*312 OAI21X1_243
*313 OAI21X1_242
*314 BUFX2_19
*315 OAI22X1_42
*316 OAI21X1_247
*317 OAI21X1_246
*318 OAI21X1_245
*319 OAI21X1_244
*320 INVX4_5
*321 AOI21X1_23
*322 INVX1_204
*323 INVX1_205
*324 INVX1_202
*325 INVX1_203
*326 INVX1_200
*327 INVX1_201
*328 INVX1_196
*329 INVX1_197
*330 NAND2X1_178
*331 INVX1_195
*332 INVX1_192
*333 INVX1_193
*334 INVX1_190
*335 INVX1_191
*336 NAND2X1_172
*337 NAND2X1_173
*338 NAND2X1_170
*339 NAND2X1_171
*340 NAND2X1_176
*341 NAND2X1_177
*342 INVX1_198
*343 NAND2X1_175
*344 NAND2X1_78
*345 NAND2X1_79
*346 NAND2X1_74
*347 NAND2X1_75
*348 NAND2X1_76
*349 NAND2X1_77
*350 NAND2X1_70
*351 NAND2X1_71
*352 NAND2X1_72
*353 NAND2X1_73
*354 NAND3X1_151
*355 OAI21X1_109
*356 BUFX4_19
*357 BUFX4_18
*358 BUFX4_11
*359 BUFX4_10
*360 BUFX4_13
*361 BUFX4_12
*362 BUFX4_15
*363 BUFX4_14
*364 BUFX4_17
*365 BUFX2_41
*366 DFFSR_5
*367 DFFSR_4
*368 DFFSR_6
*369 DFFSR_1
*370 DFFSR_3
*371 DFFSR_2
*372 NAND3X1_159
*373 OAI21X1_101
*374 FILL_10_0_1
*375 AND2X2_23
*376 AND2X2_22
*377 AND2X2_21
*378 AND2X2_20
*379 AND2X2_27
*380 AND2X2_26
*381 AND2X2_25
*382 AND2X2_24
*383 AND2X2_29
*384 AND2X2_28
*385 OAI21X1_7
*386 OAI21X1_6
*387 OAI21X1_5
*388 OAI21X1_4
*389 OAI21X1_3
*390 OAI21X1_2
*391 OAI21X1_1
*392 OAI21X1_9
*393 OAI21X1_8
*394 DFFPOSX1_119
*395 OAI21X1_325
*396 OAI21X1_323
*397 NAND3X1_100
*398 NAND2X1_252
*399 AND2X2_4
*400 AND2X2_5
*401 AND2X2_6
*402 AND2X2_7
*403 AND2X2_1
*404 AND2X2_2
*405 AND2X2_3
*406 AND2X2_8
*407 AND2X2_9
*408 BUFX4_45
*409 AOI22X1_38
*410 AOI22X1_39
*411 AOI22X1_34
*412 AOI22X1_35
*413 AOI22X1_36
*414 AOI22X1_37
*415 AOI22X1_30
*416 AOI22X1_31
*417 AOI22X1_32
*418 AOI22X1_33
*419 NAND3X1_155
*420 NAND3X1_154
*421 NAND3X1_157
*422 NAND3X1_156
*423 OAI21X1_108
*424 NAND3X1_150
*425 NAND3X1_153
*426 NAND3X1_152
*427 OAI21X1_104
*428 OAI21X1_105
*429 OAI21X1_106
*430 OAI21X1_107
*431 OAI21X1_100
*432 NAND3X1_158
*433 OAI21X1_102
*434 OAI21X1_103
*435 BUFX2_26
*436 OAI21X1_324
*437 NAND2X1_217
*438 OAI21X1_326
*439 OAI21X1_327
*440 OAI21X1_320
*441 OAI21X1_321
*442 OAI21X1_322
*443 NAND2X1_216
*444 OAI21X1_328
*445 OAI21X1_329
*446 NAND2X1_214
*447 BUFX2_27
*448 NAND2X1_213
*449 OAI21X1_41
*450 INVX2_19
*451 INVX2_18
*452 NAND2X1_211
*453 INVX2_11
*454 INVX2_10
*455 INVX2_13
*456 INVX2_12
*457 INVX2_15
*458 INVX2_14
*459 INVX2_17
*460 INVX2_16
*461 DFFPOSX1_52
*462 DFFPOSX1_53
*463 DFFPOSX1_50
*464 DFFPOSX1_51
*465 DFFPOSX1_56
*466 DFFPOSX1_57
*467 DFFPOSX1_54
*468 DFFPOSX1_55
*469 DFFPOSX1_58
*470 DFFPOSX1_59
*471 OAI21X1_258
*472 OAI21X1_259
*473 BUFX2_24
*474 BUFX2_25
*475 BUFX2_22
*476 BUFX2_23
*477 BUFX2_20
*478 BUFX2_21
*479 OAI21X1_250
*480 OAI21X1_251
*481 OAI21X1_252
*482 OAI21X1_253
*483 OAI21X1_254
*484 OAI21X1_255
*485 OAI21X1_256
*486 OAI21X1_257
*487 OAI21X1_358
*488 OR2X2_31
*489 OR2X2_30
*490 OR2X2_33
*491 NAND2X1_109
*492 NAND2X1_108
*493 NAND2X1_107
*494 NAND2X1_106
*495 NAND2X1_105
*496 NAND2X1_104
*497 NAND2X1_103
*498 NAND2X1_102
*499 NAND2X1_101
*500 NAND2X1_100
*501 NAND2X1_63
*502 NAND2X1_62
*503 NAND2X1_61
*504 NAND2X1_60
*505 NAND2X1_67
*506 NAND2X1_66
*507 NAND2X1_65
*508 NAND2X1_64
*509 NAND2X1_69
*510 NAND2X1_68
*511 BUFX4_68
*512 BUFX4_69
*513 BUFX4_64
*514 BUFX4_65
*515 BUFX4_66
*516 BUFX4_67
*517 BUFX4_60
*518 NOR2X1_3
*519 BUFX4_62
*520 BUFX4_63
*521 FILL_5_2_0
*522 OR2X2_13
*523 OR2X2_12
*524 OR2X2_11
*525 OR2X2_10
*526 OR2X2_17
*527 OR2X2_16
*528 OR2X2_15
*529 OR2X2_14
*530 OR2X2_19
*531 OR2X2_18
*532 AND2X2_34
*533 AND2X2_35
*534 AND2X2_36
*535 AND2X2_37
*536 AND2X2_30
*537 AND2X2_31
*538 AND2X2_32
*539 AND2X2_33
*540 AND2X2_38
*541 AND2X2_39
*542 BUFX2_28
*543 DFFPOSX1_103
*544 NAND3X1_107
*545 DFFPOSX1_101
*546 DFFPOSX1_100
*547 NAND3X1_102
*548 BUFX2_29
*549 DFFPOSX1_106
*550 DFFPOSX1_105
*551 DFFPOSX1_104
*552 FILL_11_0_2
*553 FILL_11_0_1
*554 FILL_11_0_0
*555 FILL_11_2_1
*556 FILL_11_2_0
*557 FILL_11_2_2
*558 DFFPOSX1_98
*559 FILL_13_1_0
*560 FILL_13_1_1
*561 FILL_13_1_2
*562 AOI22X1_23
*563 AOI22X1_22
*564 NAND3X1_148
*565 AOI22X1_20
*566 AOI22X1_27
*567 AOI22X1_26
*568 AOI22X1_25
*569 AOI22X1_24
*570 NAND3X1_142
*571 NAND3X1_143
*572 NAND3X1_140
*573 NAND3X1_141
*574 NAND3X1_146
*575 NAND3X1_147
*576 NAND3X1_144
*577 NAND3X1_145
*578 OAI21X1_131
*579 OAI21X1_130
*580 OAI21X1_133
*581 OAI21X1_132
*582 OAI21X1_135
*583 OAI21X1_134
*584 OAI21X1_137
*585 OAI21X1_136
*586 OAI21X1_139
*587 OAI21X1_138
*588 DFFPOSX1_27
*589 DFFPOSX1_26
*590 DFFPOSX1_25
*591 DFFPOSX1_24
*592 DFFPOSX1_23
*593 DFFPOSX1_22
*594 DFFPOSX1_21
*595 FILL_19_0_2
*596 DFFPOSX1_29
*597 DFFPOSX1_28
*598 OAI21X1_269
*599 OAI21X1_268
*600 OAI21X1_265
*601 OAI21X1_264
*602 OAI21X1_267
*603 OAI21X1_266
*604 OAI21X1_261
*605 OAI21X1_260
*606 OAI21X1_263
*607 OAI21X1_262
*608 DFFPOSX1_30
*609 FILL_9_2_2
*610 FILL_9_2_1
*611 FILL_9_2_0
*612 FILL_9_0_1
*613 FILL_9_0_0
*614 FILL_9_0_2
*615 OAI21X1_311
*616 OAI21X1_310
*617 OAI21X1_313
*618 OAI21X1_312
*619 OAI21X1_315
*620 OAI21X1_314
*621 OAI21X1_317
*622 OAI21X1_316
*623 OAI21X1_197
*624 AOI21X1_119
*625 AOI21X1_118
*626 AOI21X1_117
*627 AOI21X1_116
*628 AOI21X1_115
*629 AOI21X1_114
*630 AOI21X1_113
*631 AOI21X1_112
*632 AOI21X1_111
*633 AOI21X1_110
*634 OAI21X1_446
*635 NAND2X1_118
*636 NAND2X1_119
*637 NAND2X1_114
*638 NAND2X1_115
*639 NAND2X1_116
*640 NAND2X1_117
*641 NAND2X1_110
*642 NAND2X1_111
*643 NAND2X1_112
*644 NAND2X1_113
*645 OAI21X1_443
*646 OAI21X1_442
*647 BUFX2_39
*648 BUFX2_38
*649 BUFX2_31
*650 AOI21X1_39
*651 BUFX2_33
*652 BUFX2_32
*653 BUFX2_35
*654 BUFX2_34
*655 BUFX2_37
*656 OAI22X1_26
*657 NAND2X1_16
*658 NAND2X1_17
*659 NAND2X1_14
*660 NAND2X1_15
*661 NAND2X1_12
*662 NAND2X1_13
*663 NAND2X1_10
*664 NAND2X1_11
*665 OAI21X1_449
*666 OAI22X1_24
*667 NAND2X1_18
*668 OAI21X1_448
*669 OAI21X1_199
*670 OAI21X1_198
*671 OAI22X1_29
*672 AOI21X1_36
*673 BUFX4_79
*674 BUFX4_78
*675 BUFX4_77
*676 BUFX4_76
*677 BUFX4_75
*678 BUFX4_74
*679 BUFX4_73
*680 BUFX4_72
*681 BUFX4_71
*682 BUFX4_70
*683 AOI22X1_19
*684 OR2X2_26
*685 OR2X2_27
*686 OR2X2_24
*687 OR2X2_25
*688 OR2X2_22
*689 OR2X2_23
*690 OR2X2_20
*691 OR2X2_21
*692 OR2X2_28
*693 OR2X2_29
*694 AOI22X1_14
*695 OAI21X1_18
*696 NAND3X1_172
*697 NAND3X1_171
*698 NAND3X1_170
*699 NAND3X1_174
*700 FILL_16_1_1
*701 FILL_16_1_0
*702 FILL_16_1_2
*703 FILL_8_0_0
*704 FILL_8_0_1
*705 FILL_8_0_2
*706 OAI21X1_167
*707 FILL_15_0_2
*708 FILL_15_0_1
*709 FILL_15_0_0
*710 FILL_18_0_2
*711 FILL_18_0_0
*712 FILL_18_0_1
*713 FILL_18_2_0
*714 FILL_18_2_1
*715 FILL_18_2_2
*716 OAI22X1_25
*717 FILL_12_1_1
*718 FILL_12_1_0
*719 FILL_12_1_2
*720 NAND3X1_11
*721 DFFPOSX1_34
*722 OAI21X1_342
*723 DFFPOSX1_8
*724 DFFPOSX1_9
*725 OAI21X1_343
*726 DFFPOSX1_4
*727 DFFPOSX1_5
*728 DFFPOSX1_6
*729 DFFPOSX1_7
*730 DFFPOSX1_1
*731 DFFPOSX1_2
*732 DFFPOSX1_3
*733 AOI22X1_56
*734 AOI22X1_57
*735 AOI22X1_54
*736 AOI22X1_55
*737 AOI22X1_52
*738 AOI22X1_53
*739 NAND3X1_139
*740 NAND3X1_138
*741 NAND3X1_137
*742 NAND3X1_136
*743 NAND3X1_135
*744 NAND3X1_134
*745 NAND3X1_133
*746 NAND3X1_132
*747 AOI22X1_58
*748 AOI22X1_59
*749 OAI21X1_126
*750 OAI21X1_127
*751 OAI21X1_124
*752 OAI21X1_125
*753 OAI21X1_122
*754 OAI21X1_123
*755 NAND3X1_88
*756 NAND3X1_89
*757 NAND3X1_86
*758 NAND3X1_87
*759 NAND3X1_84
*760 NAND3X1_85
*761 NAND3X1_82
*762 NAND3X1_83
*763 NAND3X1_80
*764 NAND3X1_81
*765 OAI21X1_348
*766 OAI21X1_349
*767 NOR2X1_102
*768 NOR2X1_103
*769 DFFPOSX1_36
*770 DFFPOSX1_37
*771 NOR2X1_106
*772 NOR2X1_107
*773 NOR2X1_104
*774 NOR2X1_105
*775 NOR2X1_108
*776 NOR2X1_109
*777 DFFPOSX1_38
*778 DFFPOSX1_39
*779 OAI21X1_272
*780 OAI21X1_273
*781 OAI21X1_270
*782 OAI21X1_271
*783 OAI21X1_276
*784 OAI21X1_277
*785 OAI21X1_274
*786 OAI21X1_275
*787 OAI21X1_278
*788 OAI21X1_279
*789 BUFX4_61
*790 DFFPOSX1_31
*791 DFFPOSX1_32
*792 OAI21X1_308
*793 OAI21X1_309
*794 FILL_8_1_1
*795 OAI21X1_307
*796 OAI21X1_304
*797 OAI21X1_305
*798 OAI21X1_302
*799 OAI21X1_303
*800 OAI21X1_300
*801 OAI21X1_301
*802 INVX1_141
*803 INVX1_140
*804 INVX1_143
*805 INVX1_142
*806 INVX1_145
*807 INVX1_144
*808 INVX1_147
*809 INVX1_146
*810 INVX1_149
*811 INVX1_148
*812 AOI21X1_106
*813 AOI21X1_107
*814 AOI21X1_100
*815 AOI21X1_101
*816 AOI21X1_102
*817 DFFPOSX1_33
*818 NAND2X1_121
*819 NAND2X1_120
*820 NAND2X1_123
*821 NAND2X1_122
*822 NAND2X1_125
*823 NAND2X1_124
*824 NAND2X1_127
*825 NAND2X1_126
*826 NAND2X1_129
*827 NAND2X1_128
*828 XNOR2X1_8
*829 XNOR2X1_9
*830 OAI21X1_295
*831 XNOR2X1_1
*832 XNOR2X1_2
*833 XNOR2X1_3
*834 XNOR2X1_4
*835 OAI21X1_296
*836 XNOR2X1_6
*837 XNOR2X1_7
*838 FILL_10_0_2
*839 FILL_10_0_0
*840 OAI21X1_297
*841 OAI21X1_290
*842 OAI21X1_291
*843 NOR2X1_84
*844 OAI21X1_293
*845 FILL_10_2_0
*846 FILL_10_2_1
*847 FILL_10_2_2
*848 BUFX4_42
*849 BUFX4_43
*850 BUFX4_40
*851 BUFX4_41
*852 BUFX4_46
*853 BUFX4_47
*854 BUFX4_44
*855 INVX2_32
*856 BUFX4_48
*857 BUFX4_49
*858 OR2X2_39
*859 OR2X2_38
*860 FILL_6_2_0
*861 FILL_6_2_1
*862 FILL_6_2_2
*863 OR2X2_32
*864 OR2X2_35
*865 OR2X2_34
*866 OR2X2_37
*867 OR2X2_36
*868 FILL_20_0_2
*869 FILL_20_0_1
*870 FILL_20_0_0
*871 DFFPOSX1_72
*872 DFFPOSX1_73
*873 AOI21X1_88
*874 AOI21X1_89
*875 XNOR2X1_5
*876 AOI21X1_80
*877 AOI21X1_81
*878 AOI21X1_82
*879 AOI21X1_83
*880 AOI21X1_84
*881 AOI21X1_85
*882 AOI21X1_86
*883 AOI21X1_87
*884 INVX8_3
*885 INVX8_2
*886 INVX8_1
*887 INVX8_7
*888 INVX8_6
*889 INVX8_5
*890 INVX8_4
*891 FILL_6_0_2
*892 FILL_6_0_0
*893 FILL_6_0_1
*894 OAI21X1_406
*895 FILL_22_2_2
*896 INVX1_2
*897 INVX1_3
*898 INVX1_1
*899 INVX1_6
*900 INVX1_7
*901 INVX1_4
*902 INVX1_5
*903 INVX1_8
*904 INVX1_9
*905 FILL_16_1
*906 FILL_14_1_2
*907 FILL_14_1_1
*908 FILL_14_1_0
*909 AOI22X1_45
*910 AOI22X1_44
*911 AOI22X1_47
*912 AOI22X1_46
*913 AOI22X1_41
*914 AOI22X1_40
*915 FILL_18_3
*916 AOI22X1_42
*917 NAND3X1_124
*918 NAND3X1_125
*919 NAND3X1_126
*920 NAND3X1_127
*921 AOI22X1_49
*922 AOI22X1_48
*923 NAND3X1_122
*924 NAND3X1_123
*925 AOI21X1_7
*926 AOI21X1_6
*927 AOI21X1_5
*928 AOI21X1_4
*929 AOI21X1_3
*930 AOI21X1_2
*931 AOI21X1_1
*932 NAND3X1_95
*933 NAND3X1_94
*934 NAND3X1_97
*935 NAND3X1_96
*936 NAND3X1_91
*937 NAND3X1_90
*938 AOI21X1_9
*939 NAND3X1_92
*940 FILL_18_1
*941 NAND3X1_129
*942 OAI21X1_463
*943 OAI21X1_462
*944 OAI21X1_461
*945 OAI21X1_460
*946 OAI21X1_467
*947 AOI22X1_43
*948 OAI21X1_465
*949 OAI21X1_464
*950 INVX1_94
*951 INVX1_95
*952 OAI21X1_469
*953 FILL_18_2
*954 FILL_10_1
*955 INVX1_91
*956 INVX1_92
*957 INVX1_93
*958 INVX2_42
*959 INVX2_43
*960 INVX2_40
*961 INVX2_41
*962 INVX2_46
*963 INVX2_44
*964 INVX2_45
*965 FILL_14_1
*966 NAND3X1_120
*967 FILL_14_3
*968 FILL_14_2
*969 NAND3X1_121
*970 NOR2X1_111
*971 NOR2X1_110
*972 NOR2X1_113
*973 NOR2X1_112
*974 NOR2X1_115
*975 NOR2X1_114
*976 NOR2X1_117
*977 NOR2X1_116
*978 NOR2X1_119
*979 NOR2X1_118
*980 FILL_4_2_2
*981 OAI21X1_206
*982 OAI21X1_205
*983 OAI21X1_204
*984 OAI21X1_203
*985 OAI21X1_202
*986 OAI21X1_201
*987 OAI21X1_200
*988 OAI21X1_209
*989 OAI21X1_208
*990 NAND3X1_99
*991 FILL_4_0_0
*992 FILL_4_0_1
*993 FILL_4_0_2
*994 NAND3X1_98
*995 OAI21X1_88
*996 OAI21X1_89
*997 OAI21X1_80
*998 OAI21X1_81
*999 OAI21X1_82
*1000 NAND2X1_250
*1001 OAI21X1_84
*1002 OAI21X1_85
*1003 OAI21X1_86
*1004 OAI21X1_87
*1005 FILL_0_1_1
*1006 FILL_0_1_0
*1007 FILL_0_1_2
*1008 INVX1_152
*1009 INVX1_153
*1010 INVX1_150
*1011 INVX1_151
*1012 INVX1_156
*1013 INVX1_157
*1014 INVX1_154
*1015 INVX1_155
*1016 INVX1_158
*1017 INVX1_159
*1018 NAND2X1_136
*1019 NAND2X1_137
*1020 NAND2X1_134
*1021 NAND2X1_135
*1022 NAND2X1_132
*1023 NAND3X1_93
*1024 NAND2X1_130
*1025 NAND2X1_131
*1026 AOI21X1_8
*1027 NAND2X1_138
*1028 NAND2X1_139
*1029 AOI22X1_8
*1030 BUFX4_54
*1031 BUFX4_57
*1032 BUFX4_56
*1033 BUFX4_51
*1034 BUFX4_50
*1035 BUFX4_53
*1036 BUFX4_52
*1037 AOI22X1_1
*1038 AOI22X1_2
*1039 AOI22X1_3
*1040 BUFX4_59
*1041 BUFX4_58
*1042 AOI22X1_6
*1043 AOI22X1_7
*1044 OAI21X1_83
*1045 INVX1_180
*1046 OR2X2_40
*1047 OR2X2_41
*1048 INVX1_98
*1049 OAI21X1_466
*1050 AND2X2_43
*1051 NAND2X1_38
*1052 NAND2X1_39
*1053 AND2X2_42
*1054 NAND2X1_30
*1055 NAND2X1_31
*1056 NAND2X1_32
*1057 NAND2X1_33
*1058 NAND2X1_34
*1059 NAND2X1_35
*1060 NAND2X1_36
*1061 NAND2X1_37
*1062 OAI21X1_468
*1063 AND2X2_47
*1064 AOI21X1_99
*1065 AOI21X1_98
*1066 AOI21X1_97
*1067 INVX1_90
*1068 AOI21X1_95
*1069 AND2X2_46
*1070 AOI21X1_93
*1071 AOI21X1_92
*1072 AOI21X1_91
*1073 AOI21X1_90
*1074 AOI21X1_53
*1075 AOI21X1_52
*1076 FILL_22_0_1
*1077 FILL_22_0_0
*1078 FILL_22_0_2
*1079 OR2X2_5
*1080 OR2X2_4
*1081 AOI21X1_57
*1082 OR2X2_2
*1083 AOI21X1_55
*1084 FILL_3_1_2
*1085 NAND2X1_226
*1086 FILL_3_1_0
*1087 FILL_3_1_1
*1088 NAND2X1_227
*1089 NAND2X1_224
*1090 NAND2X1_225
*1091 NAND3X1_116
*1092 FILL_18_1_2
*1093 NAND2X1_223
*1094 NAND2X1_220
*1095 NAND2X1_221
*1096 FILL_18_1_1
*1097 FILL_1_0_1
*1098 FILL_1_0_0
*1099 FILL_1_0_2
*1100 NAND2X1_8
*1101 NAND2X1_9
*1102 NAND2X1_4
*1103 NAND2X1_5
*1104 NAND2X1_6
*1105 NAND2X1_7
*1106 NAND2X1_1
*1107 NAND2X1_2
*1108 NAND2X1_3
*1109 DFFPOSX1_110
*1110 DFFPOSX1_111
*1111 DFFPOSX1_112
*1112 DFFPOSX1_113
*1113 NAND3X1_115
*1114 DFFPOSX1_115
*1115 DFFPOSX1_116
*1116 DFFPOSX1_117
*1117 DFFPOSX1_118
*1118 NAND3X1_118
*1119 AOI22X1_4
*1120 NAND3X1_28
*1121 NAND3X1_29
*1122 OAI21X1_414
*1123 OAI21X1_415
*1124 OAI21X1_412
*1125 AOI22X1_5
*1126 FILL_1_2_2
*1127 FILL_1_2_1
*1128 FILL_1_2_0
*1129 OAI21X1_470
*1130 OAI21X1_471
*1131 OAI21X1_472
*1132 OAI21X1_473
*1133 OAI21X1_410
*1134 INVX1_89
*1135 INVX1_88
*1136 NAND3X1_42
*1137 NAND3X1_43
*1138 NAND3X1_40
*1139 NAND3X1_41
*1140 NAND3X1_46
*1141 NAND3X1_47
*1142 NAND3X1_44
*1143 NAND3X1_45
*1144 OAI21X1_148
*1145 NAND3X1_21
*1146 NAND2X1_179
*1147 DFFPOSX1_18
*1148 DFFPOSX1_19
*1149 DFFPOSX1_16
*1150 DFFPOSX1_17
*1151 DFFPOSX1_14
*1152 DFFPOSX1_15
*1153 DFFPOSX1_12
*1154 DFFPOSX1_13
*1155 DFFPOSX1_10
*1156 DFFPOSX1_11
*1157 NOR2X1_124
*1158 FILL_2_1_2
*1159 NOR2X1_126
*1160 NOR2X1_127
*1161 NOR2X1_120
*1162 NOR2X1_121
*1163 NOR2X1_122
*1164 NOR2X1_123
*1165 NAND3X1_27
*1166 NOR2X1_128
*1167 NOR2X1_129
*1168 OAI21X1_214
*1169 OAI21X1_215
*1170 OAI21X1_216
*1171 OAI21X1_217
*1172 OAI21X1_210
*1173 OAI21X1_211
*1174 OAI21X1_212
*1175 OAI21X1_213
*1176 OAI21X1_218
*1177 FILL_4_2_0
*1178 OAI21X1_445
*1179 FILL_4_2_1
*1180 NAND2X1_248
*1181 NAND2X1_249
*1182 OAI21X1_99
*1183 OAI21X1_98
*1184 OAI21X1_97
*1185 OAI21X1_96
*1186 OAI21X1_95
*1187 OAI21X1_94
*1188 OAI21X1_93
*1189 OAI21X1_92
*1190 OAI21X1_91
*1191 OAI21X1_90
*1192 OAI21X1_444
*1193 INVX1_167
*1194 AOI21X1_127
*1195 INVX1_165
*1196 INVX1_164
*1197 INVX1_163
*1198 INVX1_162
*1199 AOI21X1_120
*1200 AOI21X1_121
*1201 AOI21X1_128
*1202 AOI21X1_129
*1203 AND2X2_48
*1204 BUFX2_40
*1205 FILL_5_1_0
*1206 FILL_5_1_1
*1207 FILL_5_1_2
*1208 BUFX4_88
*1209 BUFX4_89
*1210 BUFX4_86
*1211 BUFX4_87
*1212 BUFX4_84
*1213 BUFX4_85
*1214 BUFX4_82
*1215 BUFX4_83
*1216 BUFX4_80
*1217 BUFX4_81
*1218 NAND2X1_253
*1219 NAND2X1_29
*1220 NAND2X1_28
*1221 NAND2X1_27
*1222 NAND2X1_26
*1223 NAND2X1_25
*1224 NAND2X1_24
*1225 NAND2X1_23
*1226 NAND2X1_22
*1227 NAND2X1_21
*1228 NAND2X1_20
*1229 AOI21X1_62
*1230 AOI21X1_63
*1231 AOI21X1_60
*1232 AOI21X1_61
*1233 AOI21X1_66
*1234 AOI21X1_67
*1235 AOI21X1_64
*1236 AOI21X1_65
*1237 AOI21X1_68
*1238 AOI21X1_69
*1239 OAI21X1_416
*1240 FILL_7_1_2
*1241 FILL_7_1_0
*1242 FILL_7_1_1
*1243 OAI21X1_417
*1244 AOI21X1_131
*1245 FILL_21_2_0
*1246 FILL_21_2_1
*1247 FILL_21_2_2
*1248 AOI21X1_130
*1249 FILL_17_0_2
*1250 FILL_1_2
*1251 FILL_1_1
*1252 FILL_7_1
*1253 FILL_7_2
*1254 FILL_21_1
*1255 OAI21X1_413
*1256 FILL_21_2
*1257 NOR2X1_1
*1258 FILL_5_2_2
*1259 FILL_5_2_1
*1260 NOR2X1_2
*1261 NOR2X1_5
*1262 NOR2X1_4
*1263 NOR2X1_7
*1264 NOR2X1_6
*1265 NOR2X1_9
*1266 NOR2X1_8
*1267 AOI22X1_63
*1268 AOI22X1_62
*1269 AOI22X1_61
*1270 AOI22X1_60
*1271 NAND3X1_106
*1272 DFFPOSX1_102
*1273 NAND3X1_104
*1274 NAND3X1_105
*1275 FILL_2_2_0
*1276 FILL_2_2_1
*1277 FILL_2_2_2
*1278 NAND3X1_101
*1279 DFFPOSX1_109
*1280 DFFPOSX1_108
*1281 NAND3X1_108
*1282 NAND3X1_109
*1283 OAI21X1_411
*1284 FILL_21_0_2
*1285 FILL_21_0_0
*1286 FILL_21_0_1
*1287 NAND2X1_133
*1288 NAND3X1_59
*1289 NAND3X1_58
*1290 OAI21X1_195
*1291 OAI21X1_194
*1292 OAI21X1_441
*1293 OAI21X1_440
*1294 OAI21X1_191
*1295 OAI21X1_190
*1296 NAND3X1_51
*1297 NAND3X1_50
*1298 NAND3X1_53
*1299 NAND3X1_52
*1300 NAND3X1_55
*1301 NAND3X1_54
*1302 NAND3X1_57
*1303 NAND3X1_56
*1304 NOR2X1_11
*1305 NOR2X1_10
*1306 NOR2X1_13
*1307 NOR2X1_12
*1308 NOR2X1_15
*1309 NOR2X1_14
*1310 NOR2X1_17
*1311 NOR2X1_16
*1312 NOR2X1_19
*1313 NOR2X1_18
*1314 NOR2X1_139
*1315 NOR2X1_138
*1316 NOR2X1_133
*1317 NOR2X1_132
*1318 NOR2X1_131
*1319 NOR2X1_130
*1320 NOR2X1_137
*1321 NOR2X1_136
*1322 NOR2X1_135
*1323 NOR2X1_134
*1324 FILL_16_2_2
*1325 FILL_16_2_0
*1326 FILL_16_2_1
*1327 NOR3X1_1
*1328 NOR3X1_2
*1329 NOR3X1_3
*1330 NOR3X1_4
*1331 NOR3X1_5
*1332 NOR3X1_6
*1333 NOR3X1_7
*1334 NOR3X1_8
*1335 NOR3X1_9
*1336 OAI21X1_62
*1337 OAI21X1_63
*1338 OAI21X1_60
*1339 OAI21X1_61
*1340 OAI21X1_66
*1341 OAI21X1_67
*1342 OAI21X1_64
*1343 OAI21X1_65
*1344 OAI21X1_68
*1345 OAI21X1_69
*1346 AOI22X1_21
*1347 NAND3X1_149
*1348 INVX1_99
*1349 AOI22X1_29
*1350 INVX1_58
*1351 INVX1_59
*1352 AOI22X1_28
*1353 INVX1_50
*1354 INVX1_51
*1355 INVX1_52
*1356 INVX1_53
*1357 INVX1_54
*1358 INVX1_55
*1359 INVX1_56
*1360 INVX1_57
*1361 OAI21X1_229
*1362 OAI21X1_228
*1363 OAI21X1_418
*1364 OAI21X1_221
*1365 OAI21X1_220
*1366 OAI21X1_223
*1367 OAI21X1_222
*1368 OAI21X1_225
*1369 OAI21X1_224
*1370 OAI21X1_227
*1371 OAI21X1_226
*1372 FILL_16_0_0
*1373 FILL_16_0_1
*1374 FILL_16_0_2
*1375 INVX1_178
*1376 INVX1_179
*1377 INVX1_170
*1378 INVX1_171
*1379 INVX1_172
*1380 INVX1_173
*1381 INVX1_174
*1382 INVX1_175
*1383 INVX1_176
*1384 INVX1_177
*1385 INVX1_96
*1386 INVX1_97
*1387 AOI21X1_71
*1388 AOI21X1_70
*1389 AOI21X1_73
*1390 AOI21X1_72
*1391 AOI21X1_75
*1392 AOI21X1_74
*1393 AOI21X1_77
*1394 AOI21X1_76
*1395 AOI21X1_79
*1396 AOI21X1_78
*1397 FILL_19_1_0
*1398 FILL_19_1_1
*1399 OAI21X1_400
*1400 NAND2X1_222
*1401 OAI21X1_403
*1402 BUFX4_55
*1403 AOI22X1_9
*1404 FILL_15_1_2
*1405 FILL_15_1_0
*1406 OAI21X1_402
*1407 NAND2X1_147
*1408 FILL_15_1_1
*1409 NAND2X1_146
*1410 NAND2X1_144
*1411 INVX4_7
*1412 NAND2X1_84
*1413 NAND2X1_149
*1414 NAND2X1_86
*1415 DFFPOSX1_138
*1416 DFFPOSX1_136
*1417 NAND2X1_81
*1418 DFFPOSX1_134
*1419 DFFPOSX1_135
*1420 DFFPOSX1_132
*1421 DFFPOSX1_133
*1422 DFFPOSX1_130
*1423 NAND2X1_80
*1424 NAND2X1_83
*1425 OAI21X1_407
*1426 OAI21X1_184
*1427 OAI21X1_185
*1428 OAI21X1_186
*1429 OAI21X1_187
*1430 NAND3X1_68
*1431 NAND3X1_69
*1432 OAI21X1_182
*1433 OAI21X1_183
*1434 NAND3X1_64
*1435 NAND3X1_65
*1436 NAND3X1_66
*1437 NAND3X1_67
*1438 NAND3X1_60
*1439 NAND3X1_61
*1440 NAND3X1_62
*1441 NAND3X1_63
*1442 FILL_18_1_0
*1443 NAND3X1_9
*1444 NAND3X1_8
*1445 NAND3X1_5
*1446 NAND3X1_4
*1447 NAND3X1_7
*1448 NAND3X1_6
*1449 NAND3X1_1
*1450 NAND3X1_3
*1451 NAND3X1_2
*1452 MUX2X1_8
*1453 MUX2X1_9
*1454 NOR2X1_148
*1455 NOR2X1_149
*1456 MUX2X1_4
*1457 NOR2X1_147
*1458 NOR2X1_144
*1459 MUX2X1_7
*1460 NOR2X1_142
*1461 NOR2X1_143
*1462 MUX2X1_2
*1463 NOR2X1_141
*1464 NAND2X1_241
*1465 OAI21X1_71
*1466 OAI21X1_70
*1467 OAI21X1_73
*1468 OAI21X1_72
*1469 OAI21X1_75
*1470 OAI21X1_74
*1471 OAI21X1_77
*1472 OAI21X1_76
*1473 OAI21X1_79
*1474 OAI21X1_78
*1475 OAI21X1_458
*1476 OAI21X1_459
*1477 DFFPOSX1_78
*1478 OAI21X1_452
*1479 OAI21X1_453
*1480 OAI21X1_450
*1481 OAI21X1_451
*1482 OAI21X1_456
*1483 OAI21X1_457
*1484 OAI21X1_454
*1485 OAI21X1_455
*1486 DFFPOSX1_20
*1487 INVX1_49
*1488 INVX1_48
*1489 INVX1_43
*1490 INVX1_42
*1491 INVX1_41
*1492 INVX1_40
*1493 INVX1_47
*1494 INVX1_46
*1495 INVX1_45
*1496 INVX1_44
*1497 OAI21X1_238
*1498 OAI21X1_239
*1499 OAI21X1_236
*1500 OAI21X1_237
*1501 OAI21X1_234
*1502 OAI21X1_235
*1503 OAI21X1_232
*1504 OAI21X1_233
*1505 OAI21X1_230
*1506 OAI21X1_231
*1507 INVX1_109
*1508 INVX1_108
*1509 INVX1_105
*1510 INVX1_104
*1511 INVX1_107
*1512 INVX1_106
*1513 INVX1_101
*1514 INVX1_100
*1515 INVX1_103
*1516 INVX1_102
*1517 NAND2X1_187
*1518 NAND2X1_186
*1519 NAND2X1_185
*1520 NAND2X1_184
*1521 NAND2X1_183
*1522 NAND2X1_182
*1523 NAND2X1_181
*1524 NAND2X1_180
*1525 NAND2X1_189
*1526 NAND2X1_188
*1527 AOI21X1_44
*1528 AOI21X1_45
*1529 AOI21X1_46
*1530 AOI21X1_47
*1531 AOI21X1_40
*1532 AOI21X1_41
*1533 AOI21X1_42
*1534 AOI21X1_43
*1535 AOI21X1_48
*1536 AOI21X1_49
*1537 OAI21X1_15
*1538 DFFPOSX1_137
*1539 BUFX4_24
*1540 FILL_20_2_0
*1541 FILL_20_2_2
*1542 BUFX4_29
*1543 DFFPOSX1_131
*1544 OAI22X1_18
*1545 OAI22X1_19
*1546 OAI22X1_12
*1547 OAI22X1_13
*1548 OAI22X1_10
*1549 OAI22X1_11
*1550 OAI22X1_16
*1551 OAI22X1_17
*1552 OAI22X1_14
*1553 OAI22X1_15
*1554 OAI21X1_319
*1555 OAI21X1_318
*1556 AOI21X1_96
*1557 DFFPOSX1_129
*1558 DFFPOSX1_128
*1559 AOI21X1_94
*1560 DFFPOSX1_121
*1561 DFFPOSX1_120
*1562 DFFPOSX1_123
*1563 DFFPOSX1_122
*1564 DFFPOSX1_125
*1565 DFFPOSX1_124
*1566 DFFPOSX1_127
*1567 DFFPOSX1_126
*1568 FILL_22_2_1
*1569 FILL_22_2_0
*1570 INVX2_23
*1571 NAND3X1_73
*1572 NAND3X1_72
*1573 NAND3X1_71
*1574 NAND3X1_70
*1575 NAND3X1_77
*1576 NAND3X1_76
*1577 NAND3X1_75
*1578 NAND3X1_74
*1579 NAND3X1_79
*1580 NAND3X1_78
*1581 NOR2X1_37
*1582 NOR2X1_36
*1583 NOR2X1_35
*1584 NOR2X1_34
*1585 NOR2X1_33
*1586 NOR2X1_32
*1587 NOR2X1_31
*1588 NOR2X1_30
*1589 NOR2X1_39
*1590 NOR2X1_38
*1591 NOR2X1_159
*1592 NOR2X1_158
*1593 NOR2X1_155
*1594 NOR2X1_154
*1595 NOR2X1_157
*1596 NOR2X1_156
*1597 NOR2X1_151
*1598 NOR2X1_150
*1599 NOR2X1_153
*1600 NOR2X1_152
*1601 OAI21X1_294
*1602 OAI21X1_44
*1603 OAI21X1_45
*1604 OAI21X1_46
*1605 OAI21X1_47
*1606 OAI21X1_40
*1607 NAND2X1_212
*1608 OAI21X1_42
*1609 OAI21X1_43
*1610 OAI21X1_48
*1611 OAI21X1_49
*1612 NAND2X1_219
*1613 NAND2X1_218
*1614 OAI21X1_429
*1615 OAI21X1_428
*1616 OAI21X1_427
*1617 OAI21X1_426
*1618 OAI21X1_425
*1619 OAI21X1_424
*1620 OAI21X1_423
*1621 OAI21X1_422
*1622 OAI21X1_421
*1623 OAI21X1_420
*1624 OAI21X1_180
*1625 OAI21X1_181
*1626 INVX1_78
*1627 INVX1_79
*1628 INVX1_76
*1629 INVX1_77
*1630 INVX1_74
*1631 INVX1_75
*1632 INVX1_72
*1633 INVX1_73
*1634 INVX1_70
*1635 INVX1_71
*1636 OAI21X1_188
*1637 FILL_19_0_1
*1638 FILL_19_0_0
*1639 OAI21X1_189
*1640 DFFPOSX1_69
*1641 FILL_19_2_1
*1642 FILL_19_2_0
*1643 FILL_19_2_2
*1644 NAND2X1_246
*1645 INVX1_118
*1646 INVX1_119
*1647 INVX1_116
*1648 INVX1_117
*1649 INVX1_114
*1650 INVX1_115
*1651 INVX1_112
*1652 INVX1_113
*1653 INVX1_110
*1654 INVX1_111
*1655 OAI21X1_240
*1656 NAND2X1_194
*1657 NAND2X1_195
*1658 NAND2X1_196
*1659 NAND2X1_197
*1660 NAND2X1_190
*1661 NAND2X1_191
*1662 NAND2X1_192
*1663 NAND2X1_193
*1664 NAND2X1_198
*1665 NAND2X1_199
*1666 BUFX2_30
*1667 INVX1_129
*1668 FILL_17_2_0
*1669 NAND3X1_166
*1670 NAND3X1_167
*1671 NOR2X1_146
*1672 MUX2X1_5
*1673 FILL_9_1_0
*1674 FILL_9_1_1
*1675 FILL_9_1_2
*1676 BUFX2_36
*1677 MUX2X1_6
*1678 NOR2X1_145
*1679 MUX2X1_1
*1680 NOR2X1_140
*1681 MUX2X1_3
*1682 INVX1_169
*1683 AND2X2_41
*1684 AND2X2_40
*1685 AOI21X1_59
*1686 AOI21X1_58
*1687 AND2X2_45
*1688 AND2X2_44
*1689 OR2X2_9
*1690 OR2X2_8
*1691 OR2X2_7
*1692 OR2X2_6
*1693 AOI21X1_51
*1694 AOI21X1_50
*1695 OR2X2_3
*1696 AOI21X1_56
*1697 OR2X2_1
*1698 AOI21X1_54
*1699 NAND2X1_19
*1700 XOR2X1_3
*1701 XOR2X1_2
*1702 XOR2X1_1
*1703 OAI21X1_332
*1704 NOR2X1_28
*1705 NOR2X1_29
*1706 NOR2X1_20
*1707 NOR2X1_21
*1708 NOR2X1_22
*1709 NOR2X1_23
*1710 NOR2X1_24
*1711 NOR2X1_25
*1712 NOR2X1_26
*1713 NOR2X1_27
*1714 NOR2X1_160
*1715 NOR2X1_161
*1716 NOR2X1_162
*1717 NOR2X1_163
*1718 NOR2X1_164
*1719 NOR2X1_165
*1720 NOR2X1_166
*1721 NOR2X1_167
*1722 NOR2X1_168
*1723 NOR2X1_169
*1724 NOR2X1_188
*1725 NOR2X1_189
*1726 NAND3X1_103
*1727 NOR2X1_182
*1728 NOR2X1_183
*1729 NOR2X1_180
*1730 NOR2X1_181
*1731 NOR2X1_186
*1732 NOR2X1_187
*1733 NOR2X1_184
*1734 NOR2X1_185
*1735 OAI21X1_59
*1736 OAI21X1_58
*1737 OAI21X1_53
*1738 OAI21X1_52
*1739 OAI21X1_51
*1740 OAI21X1_50
*1741 OAI21X1_57
*1742 OAI21X1_56
*1743 OAI21X1_55
*1744 OAI21X1_54
*1745 NAND2X1_204
*1746 NAND2X1_205
*1747 NAND2X1_206
*1748 NAND2X1_207
*1749 NAND2X1_200
*1750 NAND2X1_201
*1751 NAND2X1_202
*1752 NAND2X1_203
*1753 NAND2X1_208
*1754 NAND2X1_209
*1755 OAI21X1_287
*1756 OAI21X1_438
*1757 OAI21X1_439
*1758 OAI21X1_434
*1759 OAI21X1_435
*1760 OAI21X1_436
*1761 OAI21X1_437
*1762 OAI21X1_430
*1763 OAI21X1_431
*1764 OAI21X1_432
*1765 OAI21X1_433
*1766 OAI21X1_286
*1767 INVX1_61
*1768 INVX1_60
*1769 INVX1_63
*1770 INVX1_62
*1771 INVX1_65
*1772 INVX1_64
*1773 INVX1_67
*1774 INVX1_66
*1775 INVX1_69
*1776 INVX1_68
*1777 OAI21X1_285
*1778 NOR2X1_218
*1779 NOR2X1_219
*1780 NOR2X1_212
*1781 NOR2X1_213
*1782 NOR2X1_210
*1783 NOR2X1_211
*1784 NOR2X1_216
*1785 NOR2X1_217
*1786 NOR2X1_214
*1787 NOR2X1_215
*1788 MUX2X1_11
*1789 OAI21X1_284
*1790 INVX1_123
*1791 INVX1_122
*1792 INVX1_121
*1793 INVX1_120
*1794 INVX1_127
*1795 INVX1_126
*1796 INVX1_125
*1797 INVX1_124
*1798 FILL_17_2_2
*1799 FILL_17_2_1
*1800 INVX1_128
*1801 FILL_15_2_1
*1802 FILL_15_2_0
*1803 FILL_15_2_2
*1804 FILL_17_0_1
*1805 NAND2X1_148
*1806 FILL_11_1_2
*1807 FILL_11_1_0
*1808 FILL_11_1_1
*1809 BUFX2_11
*1810 OAI21X1_248
*1811 FILL_8_2_2
*1812 FILL_8_2_0
*1813 FILL_8_2_1
*1814 OAI21X1_241
*1815 BUFX2_18
*1816 FILL_13_2_2
*1817 FILL_13_2_1
*1818 FILL_13_2_0
*1819 FILL_13_0_1
*1820 FILL_13_0_0
*1821 FILL_13_0_2
*1822 MUX2X1_12
*1823 MUX2X1_13