*SPEF "IEEE 1481-2009"
*DESIGN "pic27ch"
*DATE "2019-05-05 01:37:11.236413"
*VENDOR "AUC_STUDENTS"
*PROGRAM "Def2Spef_Converter"
*VERSION "0.0"
*DESIGN_FLOW "PROJECT2_FLOW"
*DIVIDER /
*DELIMITER :
*BUS_DELIMITER <>
*T_UNIT 1 PS
*C_UNIT 1 FF
*R_UNIT 1 KOHM
*L_UNIT 1 UH

*NAME_MAP

*PORTS

*D_NET _0_ 
*CONN
*I AOI22X1_16:A I *L 0.0265618
*I AOI22X1_15:A I *L 0.0265618
*I AOI22X1_14:A I *L 0.0265618
*I AOI22X1_13:A I *L 0.0265618
*I AOI22X1_12:A I *L 0.0265618
*I AOI22X1_11:A I *L 0.0265618
*I AOI22X1_10:A I *L 0.0265618
*I AOI22X1_9:A I *L 0.0265618
*I AOI22X1_8:A I *L 0.0265618
*I NAND3X1_1:Y O *D NAND3X1
*I BUFX2_1:A I *L 0.0134147
*CAP
*RES
*END

*D_NET out223 
*CONN
*I BUFX2_1:Y O *D BUFX2
*CAP
*RES
*END

*D_NET _1_ 
*CONN
*I AOI22X1_16:C I *L 0.0270661
*I AOI22X1_15:C I *L 0.0270661
*I AOI22X1_14:C I *L 0.0270661
*I AOI22X1_13:C I *L 0.0270661
*I AOI22X1_12:C I *L 0.0270661
*I AOI22X1_11:C I *L 0.0270661
*I AOI22X1_10:C I *L 0.0270661
*I AOI22X1_9:C I *L 0.0270661
*I AOI22X1_8:C I *L 0.0270661
*I NAND3X1_6:Y O *D NAND3X1
*I BUFX2_2:A I *L 0.0134147
*CAP
*RES
*END

*D_NET out329 
*CONN
*I BUFX2_2:Y O *D BUFX2
*CAP
*RES
*END

*D_NET _2_ 
*CONN
*I NAND2X1_34:A I *L 0.0177118
*I NAND2X1_33:A I *L 0.0177118
*I NAND2X1_32:A I *L 0.0177118
*I NAND2X1_31:A I *L 0.0177118
*I NAND2X1_30:A I *L 0.0177118
*I NAND2X1_29:A I *L 0.0177118
*I NAND2X1_28:A I *L 0.0177118
*I NAND2X1_27:A I *L 0.0177118
*I NAND2X1_26:A I *L 0.0177118
*I NAND3X1_11:Y O *D NAND3X1
*I BUFX2_3:A I *L 0.0134147
*CAP
*RES
*END

*D_NET out370 
*CONN
*I BUFX2_3:Y O *D BUFX2
*CAP
*RES
*END

*D_NET _3_ 
*CONN
*I AOI21X1_3:Y O *D AOI21X1
*I BUFX2_4:A I *L 0.0134147
*CAP
*RES
*END

*D_NET out421 
*CONN
*I BUFX2_4:Y O *D BUFX2
*CAP
*RES
*END

*D_NET _4_ 
*CONN
*I INVX1_29:Y O *D INVX1
*I BUFX2_5:A I *L 0.0134147
*CAP
*RES
*END

*D_NET out430 
*CONN
*I BUFX2_5:Y O *D BUFX2
*CAP
*RES
*END

*D_NET _5_ 
*CONN
*I NAND3X1_22:Y O *D NAND3X1
*I BUFX2_6:A I *L 0.0134147
*CAP
*RES
*END

*D_NET out431 
*CONN
*I BUFX2_6:Y O *D BUFX2
*CAP
*RES
*END

*D_NET _6_ 
*CONN
*I NAND3X1_24:Y O *D NAND3X1
*I BUFX2_7:A I *L 0.0134147
*CAP
*RES
*END

*D_NET out432 
*CONN
*I BUFX2_7:Y O *D BUFX2
*CAP
*RES
*END

*D_NET in76 
*CONN
*I AOI22X1_10:B I *L 0.0268737
*I INVX1_1:A I *L 0.0134094
*CAP
*RES
*END

*D_NET _7_ 
*CONN
*I NAND2X1_3:B I *L 0.0180112
*I AOI21X1_1:A I *L 0.0265613
*I INVX1_1:Y O *D INVX1
*CAP
*RES
*END

*D_NET in108 
*CONN
*I NAND3X1_12:A I *L 0.0222511
*I AND2X2_9:A I *L 0.0180033
*I NAND3X1_4:A I *L 0.0222511
*I NAND2X1_1:A I *L 0.0177118
*I INVX1_2:A I *L 0.0134094
*CAP
*RES
*END

*D_NET _8_ 
*CONN
*I OAI22X1_1:B I *L 0.0271075
*I INVX1_2:Y O *D INVX1
*CAP
*RES
*END

*D_NET in95 
*CONN
*I NAND3X1_13:A I *L 0.0222511
*I NAND3X1_9:A I *L 0.0222511
*I NAND3X1_5:A I *L 0.0222511
*I NAND2X1_2:A I *L 0.0177118
*I INVX1_3:A I *L 0.0134094
*CAP
*RES
*END

*D_NET _9_ 
*CONN
*I OAI22X1_1:D I *L 0.027353
*I INVX1_3:Y O *D INVX1
*CAP
*RES
*END

*D_NET in102 
*CONN
*I AOI22X1_8:B I *L 0.0268737
*I INVX1_10:A I *L 0.0134094
*I OAI22X1_1:A I *L 0.0265291
*CAP
*RES
*END

*D_NET in89 
*CONN
*I AOI22X1_9:B I *L 0.0268737
*I INVX1_11:A I *L 0.0134094
*I OAI22X1_1:C I *L 0.026839
*CAP
*RES
*END

*D_NET _10_ 
*CONN
*I AOI21X1_1:C I *L 0.02277
*I OAI22X1_1:Y O *D OAI22X1
*CAP
*RES
*END

*D_NET in82 
*CONN
*I NAND3X1_14:A I *L 0.0222511
*I NAND2X1_19:A I *L 0.0177118
*I NAND2X1_11:A I *L 0.0177118
*I NAND2X1_3:A I *L 0.0177118
*I AOI21X1_1:B I *L 0.0268633
*CAP
*RES
*END

*D_NET _11_ 
*CONN
*I NAND3X1_1:B I *L 0.022204
*I AOI21X1_1:Y O *D AOI21X1
*CAP
*RES
*END

*D_NET in37 
*CONN
*I AOI22X1_13:B I *L 0.0268737
*I INVX1_4:A I *L 0.0134094
*CAP
*RES
*END

*D_NET _12_ 
*CONN
*I NAND2X1_6:B I *L 0.0180112
*I AOI22X1_1:A I *L 0.0265618
*I INVX1_4:Y O *D INVX1
*CAP
*RES
*END

*D_NET in24 
*CONN
*I AOI22X1_14:B I *L 0.0268737
*I INVX1_5:A I *L 0.0134094
*CAP
*RES
*END

*D_NET _13_ 
*CONN
*I NAND2X1_7:B I *L 0.0180112
*I AOI22X1_1:C I *L 0.0270661
*I INVX1_5:Y O *D INVX1
*CAP
*RES
*END

*D_NET in43 
*CONN
*I NAND3X1_17:A I *L 0.0222511
*I NAND2X1_23:A I *L 0.0177118
*I AND2X2_3:A I *L 0.0180033
*I NAND2X1_6:A I *L 0.0177118
*I AOI22X1_1:B I *L 0.0268737
*CAP
*RES
*END

*D_NET in30 
*CONN
*I NAND3X1_18:A I *L 0.0222511
*I NAND2X1_20:A I *L 0.0177118
*I AND2X2_2:A I *L 0.0180033
*I NAND2X1_7:A I *L 0.0177118
*I AOI22X1_1:D I *L 0.0273706
*CAP
*RES
*END

*D_NET _14_ 
*CONN
*I NAND3X1_3:A I *L 0.0222511
*I AND2X2_1:A I *L 0.0180033
*I AOI22X1_1:Y O *D AOI22X1
*CAP
*RES
*END

*D_NET in63 
*CONN
*I AOI22X1_11:B I *L 0.0268737
*I INVX1_6:A I *L 0.0134094
*CAP
*RES
*END

*D_NET _15_ 
*CONN
*I NAND2X1_4:B I *L 0.0180112
*I AOI22X1_2:A I *L 0.0265618
*I INVX1_6:Y O *D INVX1
*CAP
*RES
*END

*D_NET in50 
*CONN
*I AOI22X1_12:B I *L 0.0268737
*I INVX1_7:A I *L 0.0134094
*CAP
*RES
*END

*D_NET _16_ 
*CONN
*I NAND2X1_5:B I *L 0.0180112
*I AOI22X1_2:C I *L 0.0270661
*I INVX1_7:Y O *D INVX1
*CAP
*RES
*END

*D_NET in69 
*CONN
*I NAND3X1_15:A I *L 0.0222511
*I NAND3X1_10:A I *L 0.0222511
*I AND2X2_4:A I *L 0.0180033
*I NAND2X1_4:A I *L 0.0177118
*I AOI22X1_2:B I *L 0.0268737
*CAP
*RES
*END

*D_NET in56 
*CONN
*I NAND3X1_16:A I *L 0.0222511
*I NAND2X1_25:A I *L 0.0177118
*I AND2X2_5:A I *L 0.0180033
*I NAND2X1_5:A I *L 0.0177118
*I AOI22X1_2:D I *L 0.0273706
*CAP
*RES
*END

*D_NET _17_ 
*CONN
*I NAND3X1_3:B I *L 0.022204
*I AND2X2_1:B I *L 0.0177358
*I AOI22X1_2:Y O *D AOI22X1
*CAP
*RES
*END

*D_NET _18_ 
*CONN
*I NAND3X1_1:C I *L 0.0226301
*I AND2X2_1:Y O *D AND2X2
*CAP
*RES
*END

*D_NET in1 
*CONN
*I AOI22X1_16:B I *L 0.0268737
*I INVX1_8:A I *L 0.0134094
*CAP
*RES
*END

*D_NET _19_ 
*CONN
*I NAND2X1_9:B I *L 0.0180112
*I AOI22X1_3:A I *L 0.0265618
*I INVX1_8:Y O *D INVX1
*CAP
*RES
*END

*D_NET in11 
*CONN
*I AOI22X1_15:B I *L 0.0268737
*I INVX1_9:A I *L 0.0134094
*CAP
*RES
*END

*D_NET _20_ 
*CONN
*I NAND2X1_8:B I *L 0.0180112
*I AOI22X1_3:C I *L 0.0270661
*I INVX1_9:Y O *D INVX1
*CAP
*RES
*END

*D_NET in4 
*CONN
*I NAND3X1_20:A I *L 0.0222511
*I AND2X2_10:A I *L 0.0180033
*I AND2X2_7:A I *L 0.0180033
*I NAND2X1_9:A I *L 0.0177118
*I AOI22X1_3:B I *L 0.0268737
*CAP
*RES
*END

*D_NET in17 
*CONN
*I NAND3X1_19:A I *L 0.0222511
*I AND2X2_11:A I *L 0.0180033
*I AND2X2_8:A I *L 0.0180033
*I NAND2X1_8:A I *L 0.0177118
*I AOI22X1_3:D I *L 0.0273706
*CAP
*RES
*END

*D_NET _21_ 
*CONN
*I NAND3X1_3:C I *L 0.0226301
*I NAND3X1_1:A I *L 0.0222511
*I AOI22X1_3:Y O *D AOI22X1
*CAP
*RES
*END

*D_NET _22_ 
*CONN
*I NAND2X1_1:B I *L 0.0180112
*I INVX1_10:Y O *D INVX1
*CAP
*RES
*END

*D_NET _23_ 
*CONN
*I OAI21X1_1:C I *L 0.0180101
*I NAND3X1_2:A I *L 0.0222511
*I NAND2X1_1:Y O *D NAND2X1
*CAP
*RES
*END

*D_NET _24_ 
*CONN
*I NAND2X1_2:B I *L 0.0180112
*I INVX1_11:Y O *D INVX1
*CAP
*RES
*END

*D_NET _25_ 
*CONN
*I OAI21X1_2:C I *L 0.0180101
*I NAND3X1_2:B I *L 0.022204
*I NAND2X1_2:Y O *D NAND2X1
*CAP
*RES
*END

*D_NET _26_ 
*CONN
*I OAI21X1_3:C I *L 0.0180101
*I NAND3X1_2:C I *L 0.0226301
*I NAND2X1_3:Y O *D NAND2X1
*CAP
*RES
*END

*D_NET _27_ 
*CONN
*I OAI21X1_9:A I *L 0.0265312
*I OAI21X1_8:A I *L 0.0265312
*I OAI21X1_7:A I *L 0.0265312
*I OAI21X1_6:A I *L 0.0265312
*I OAI21X1_5:A I *L 0.0265312
*I OAI21X1_4:A I *L 0.0265312
*I OAI21X1_3:A I *L 0.0265312
*I OAI21X1_2:A I *L 0.0265312
*I OAI21X1_1:A I *L 0.0265312
*I NAND3X1_2:Y O *D NAND3X1
*CAP
*RES
*END

*D_NET _28_ 
*CONN
*I OAI21X1_9:B I *L 0.0270702
*I OAI21X1_8:B I *L 0.0270702
*I OAI21X1_7:B I *L 0.0270702
*I OAI21X1_6:B I *L 0.0270702
*I OAI21X1_5:B I *L 0.0270702
*I OAI21X1_4:B I *L 0.0270702
*I OAI21X1_3:B I *L 0.0270702
*I OAI21X1_2:B I *L 0.0270702
*I OAI21X1_1:B I *L 0.0270702
*I NAND3X1_3:Y O *D NAND3X1
*CAP
*RES
*END

*D_NET Ckt432.X1<0> 
*CONN
*I AND2X2_9:B I *L 0.0177358
*I NAND3X1_4:B I *L 0.022204
*I OAI21X1_1:Y O *D OAI21X1
*CAP
*RES
*END

*D_NET Ckt432.X1<1> 
*CONN
*I NAND3X1_9:C I *L 0.0226301
*I NAND3X1_5:B I *L 0.022204
*I OAI21X1_2:Y O *D OAI21X1
*CAP
*RES
*END

*D_NET Ckt432.X1<2> 
*CONN
*I NAND2X1_19:B I *L 0.0180112
*I NAND2X1_11:B I *L 0.0180112
*I OAI21X1_3:Y O *D OAI21X1
*CAP
*RES
*END

*D_NET _29_ 
*CONN
*I OAI21X1_4:C I *L 0.0180101
*I NAND2X1_4:Y O *D NAND2X1
*CAP
*RES
*END

*D_NET Ckt432.X1<3> 
*CONN
*I NAND3X1_10:C I *L 0.0226301
*I AND2X2_4:B I *L 0.0177358
*I OAI21X1_4:Y O *D OAI21X1
*CAP
*RES
*END

*D_NET _30_ 
*CONN
*I OAI21X1_5:C I *L 0.0180101
*I NAND2X1_5:Y O *D NAND2X1
*CAP
*RES
*END

*D_NET Ckt432.X1<4> 
*CONN
*I NAND2X1_25:B I *L 0.0180112
*I AND2X2_5:B I *L 0.0177358
*I OAI21X1_5:Y O *D OAI21X1
*CAP
*RES
*END

*D_NET _31_ 
*CONN
*I OAI21X1_6:C I *L 0.0180101
*I NAND2X1_6:Y O *D NAND2X1
*CAP
*RES
*END

*D_NET Ckt432.X1<5> 
*CONN
*I NAND2X1_23:B I *L 0.0180112
*I AND2X2_3:B I *L 0.0177358
*I OAI21X1_6:Y O *D OAI21X1
*CAP
*RES
*END

*D_NET _32_ 
*CONN
*I OAI21X1_7:C I *L 0.0180101
*I NAND2X1_7:Y O *D NAND2X1
*CAP
*RES
*END

*D_NET Ckt432.X1<6> 
*CONN
*I NAND2X1_21:B I *L 0.0180112
*I AND2X2_2:B I *L 0.0177358
*I OAI21X1_7:Y O *D OAI21X1
*CAP
*RES
*END

*D_NET _33_ 
*CONN
*I OAI21X1_8:C I *L 0.0180101
*I NAND2X1_8:Y O *D NAND2X1
*CAP
*RES
*END

*D_NET Ckt432.X1<7> 
*CONN
*I AND2X2_11:B I *L 0.0177358
*I AND2X2_8:B I *L 0.0177358
*I OAI21X1_8:Y O *D OAI21X1
*CAP
*RES
*END

*D_NET _34_ 
*CONN
*I OAI21X1_9:C I *L 0.0180101
*I NAND2X1_9:Y O *D NAND2X1
*CAP
*RES
*END

*D_NET Ckt432.X1<8> 
*CONN
*I AND2X2_10:B I *L 0.0177358
*I AND2X2_7:B I *L 0.0177358
*I OAI21X1_9:Y O *D OAI21X1
*CAP
*RES
*END

*D_NET in112 
*CONN
*I AOI22X1_8:D I *L 0.0273706
*I INVX1_12:A I *L 0.0134094
*CAP
*RES
*END

*D_NET _35_ 
*CONN
*I NAND3X1_4:C I *L 0.0226301
*I INVX1_12:Y O *D INVX1
*CAP
*RES
*END

*D_NET _36_ 
*CONN
*I OAI21X1_10:C I *L 0.0180101
*I NAND3X1_7:A I *L 0.0222511
*I NAND2X1_10:A I *L 0.0177118
*I NAND3X1_4:Y O *D NAND3X1
*CAP
*RES
*END

*D_NET in99 
*CONN
*I AOI22X1_9:D I *L 0.0273706
*I INVX1_13:A I *L 0.0134094
*CAP
*RES
*END

*D_NET _37_ 
*CONN
*I NAND3X1_5:C I *L 0.0226301
*I INVX1_13:Y O *D INVX1
*CAP
*RES
*END

*D_NET _38_ 
*CONN
*I OAI21X1_11:C I *L 0.0180101
*I NAND3X1_7:B I *L 0.022204
*I NAND2X1_10:B I *L 0.0180112
*I NAND3X1_5:Y O *D NAND3X1
*CAP
*RES
*END

*D_NET _39_ 
*CONN
*I NOR2X1_2:B I *L 0.0227534
*I NAND2X1_10:Y O *D NAND2X1
*CAP
*RES
*END

*D_NET _40_ 
*CONN
*I NOR2X1_1:B I *L 0.0227534
*I NAND2X1_11:Y O *D NAND2X1
*CAP
*RES
*END

*D_NET in86 
*CONN
*I AOI22X1_10:D I *L 0.0273706
*I NOR2X1_1:A I *L 0.0222369
*CAP
*RES
*END

*D_NET _41_ 
*CONN
*I INVX1_20:A I *L 0.0134094
*I NOR2X1_2:A I *L 0.0222369
*I NOR2X1_1:Y O *D NOR2X1
*CAP
*RES
*END

*D_NET _42_ 
*CONN
*I NAND3X1_6:B I *L 0.022204
*I NOR2X1_2:Y O *D NOR2X1
*CAP
*RES
*END

*D_NET in34 
*CONN
*I AOI22X1_14:D I *L 0.0273706
*I INVX1_14:A I *L 0.0134094
*CAP
*RES
*END

*D_NET _43_ 
*CONN
*I NAND2X1_15:A I *L 0.0177118
*I AOI22X1_4:B I *L 0.0268737
*I INVX1_14:Y O *D INVX1
*CAP
*RES
*END

*D_NET in47 
*CONN
*I AOI22X1_13:D I *L 0.0273706
*I INVX1_15:A I *L 0.0134094
*CAP
*RES
*END

*D_NET _44_ 
*CONN
*I NAND2X1_14:A I *L 0.0177118
*I AOI22X1_4:C I *L 0.0270661
*I INVX1_15:Y O *D INVX1
*CAP
*RES
*END

*D_NET _45_ 
*CONN
*I NAND2X1_15:B I *L 0.0180112
*I AOI22X1_4:A I *L 0.0265618
*I AND2X2_2:Y O *D AND2X2
*CAP
*RES
*END

*D_NET _46_ 
*CONN
*I NAND2X1_14:B I *L 0.0180112
*I AOI22X1_4:D I *L 0.0273706
*I AND2X2_3:Y O *D AND2X2
*CAP
*RES
*END

*D_NET _47_ 
*CONN
*I NAND3X1_8:A I *L 0.0222511
*I AND2X2_6:A I *L 0.0180033
*I AOI22X1_4:Y O *D AOI22X1
*CAP
*RES
*END

*D_NET in60 
*CONN
*I AOI22X1_12:D I *L 0.0273706
*I INVX1_16:A I *L 0.0134094
*CAP
*RES
*END

*D_NET _48_ 
*CONN
*I NAND2X1_13:A I *L 0.0177118
*I AOI22X1_5:C I *L 0.0270661
*I INVX1_16:Y O *D INVX1
*CAP
*RES
*END

*D_NET in73 
*CONN
*I AOI22X1_11:D I *L 0.0273706
*I INVX1_17:A I *L 0.0134094
*CAP
*RES
*END

*D_NET _49_ 
*CONN
*I NAND2X1_12:A I *L 0.0177118
*I AOI22X1_5:B I *L 0.0268737
*I INVX1_17:Y O *D INVX1
*CAP
*RES
*END

*D_NET _50_ 
*CONN
*I NAND2X1_12:B I *L 0.0180112
*I AOI22X1_5:A I *L 0.0265618
*I AND2X2_4:Y O *D AND2X2
*CAP
*RES
*END

*D_NET _51_ 
*CONN
*I NAND2X1_13:B I *L 0.0180112
*I AOI22X1_5:D I *L 0.0273706
*I AND2X2_5:Y O *D AND2X2
*CAP
*RES
*END

*D_NET _52_ 
*CONN
*I NAND3X1_8:B I *L 0.022204
*I AND2X2_6:B I *L 0.0177358
*I AOI22X1_5:Y O *D AOI22X1
*CAP
*RES
*END

*D_NET _53_ 
*CONN
*I NAND3X1_6:C I *L 0.0226301
*I AND2X2_6:Y O *D AND2X2
*CAP
*RES
*END

*D_NET in8 
*CONN
*I AOI22X1_16:D I *L 0.0273706
*I INVX1_18:A I *L 0.0134094
*CAP
*RES
*END

*D_NET _54_ 
*CONN
*I NAND2X1_17:A I *L 0.0177118
*I AOI22X1_6:B I *L 0.0268737
*I INVX1_18:Y O *D INVX1
*CAP
*RES
*END

*D_NET in21 
*CONN
*I AOI22X1_15:D I *L 0.0273706
*I INVX1_19:A I *L 0.0134094
*CAP
*RES
*END

*D_NET _55_ 
*CONN
*I NAND2X1_16:A I *L 0.0177118
*I AOI22X1_6:C I *L 0.0270661
*I INVX1_19:Y O *D INVX1
*CAP
*RES
*END

*D_NET _56_ 
*CONN
*I NAND2X1_17:B I *L 0.0180112
*I AOI22X1_6:A I *L 0.0265618
*I AND2X2_7:Y O *D AND2X2
*CAP
*RES
*END

*D_NET _57_ 
*CONN
*I NAND2X1_16:B I *L 0.0180112
*I AOI22X1_6:D I *L 0.0273706
*I AND2X2_8:Y O *D AND2X2
*CAP
*RES
*END

*D_NET _58_ 
*CONN
*I NAND3X1_8:C I *L 0.0226301
*I NAND3X1_6:A I *L 0.0222511
*I AOI22X1_6:Y O *D AOI22X1
*CAP
*RES
*END

*D_NET _59_ 
*CONN
*I OAI21X1_12:C I *L 0.0180101
*I NAND3X1_7:C I *L 0.0226301
*I INVX1_20:Y O *D INVX1
*CAP
*RES
*END

*D_NET _60_ 
*CONN
*I OAI21X1_18:A I *L 0.0265312
*I OAI21X1_17:A I *L 0.0265312
*I OAI21X1_16:A I *L 0.0265312
*I OAI21X1_15:A I *L 0.0265312
*I OAI21X1_14:A I *L 0.0265312
*I OAI21X1_13:A I *L 0.0265312
*I OAI21X1_12:A I *L 0.0265312
*I OAI21X1_11:A I *L 0.0265312
*I OAI21X1_10:A I *L 0.0265312
*I NAND3X1_7:Y O *D NAND3X1
*CAP
*RES
*END

*D_NET _61_ 
*CONN
*I OAI21X1_18:B I *L 0.0270702
*I OAI21X1_17:B I *L 0.0270702
*I OAI21X1_16:B I *L 0.0270702
*I OAI21X1_15:B I *L 0.0270702
*I OAI21X1_14:B I *L 0.0270702
*I OAI21X1_13:B I *L 0.0270702
*I OAI21X1_12:B I *L 0.0270702
*I OAI21X1_11:B I *L 0.0270702
*I OAI21X1_10:B I *L 0.0270702
*I NAND3X1_8:Y O *D NAND3X1
*CAP
*RES
*END

*D_NET Ckt432.X2<0> 
*CONN
*I INVX1_21:A I *L 0.0134094
*I OAI21X1_10:Y O *D OAI21X1
*CAP
*RES
*END

*D_NET Ckt432.X2<1> 
*CONN
*I NAND3X1_9:B I *L 0.022204
*I OAI21X1_11:Y O *D OAI21X1
*CAP
*RES
*END

*D_NET Ckt432.X2<2> 
*CONN
*I NAND2X1_18:A I *L 0.0177118
*I OAI21X1_12:Y O *D OAI21X1
*CAP
*RES
*END

*D_NET _62_ 
*CONN
*I OAI21X1_13:C I *L 0.0180101
*I NAND2X1_12:Y O *D NAND2X1
*CAP
*RES
*END

*D_NET Ckt432.X2<3> 
*CONN
*I NAND3X1_10:B I *L 0.022204
*I OAI21X1_13:Y O *D OAI21X1
*CAP
*RES
*END

*D_NET _63_ 
*CONN
*I OAI21X1_14:C I *L 0.0180101
*I NAND2X1_13:Y O *D NAND2X1
*CAP
*RES
*END

*D_NET Ckt432.X2<4> 
*CONN
*I NAND2X1_24:A I *L 0.0177118
*I OAI21X1_14:Y O *D OAI21X1
*CAP
*RES
*END

*D_NET _64_ 
*CONN
*I OAI21X1_15:C I *L 0.0180101
*I NAND2X1_14:Y O *D NAND2X1
*CAP
*RES
*END

*D_NET Ckt432.X2<5> 
*CONN
*I NAND2X1_22:A I *L 0.0177118
*I OAI21X1_15:Y O *D OAI21X1
*CAP
*RES
*END

*D_NET _65_ 
*CONN
*I OAI21X1_16:C I *L 0.0180101
*I NAND2X1_15:Y O *D NAND2X1
*CAP
*RES
*END

*D_NET Ckt432.X2<6> 
*CONN
*I NAND2X1_21:A I *L 0.0177118
*I OAI21X1_16:Y O *D OAI21X1
*CAP
*RES
*END

*D_NET _66_ 
*CONN
*I OAI21X1_17:C I *L 0.0180101
*I NAND2X1_16:Y O *D NAND2X1
*CAP
*RES
*END

*D_NET Ckt432.X2<7> 
*CONN
*I INVX1_27:A I *L 0.0134094
*I OAI21X1_17:Y O *D OAI21X1
*CAP
*RES
*END

*D_NET _67_ 
*CONN
*I OAI21X1_18:C I *L 0.0180101
*I NAND2X1_17:Y O *D NAND2X1
*CAP
*RES
*END

*D_NET Ckt432.X2<8> 
*CONN
*I INVX1_26:A I *L 0.0134094
*I OAI21X1_18:Y O *D OAI21X1
*CAP
*RES
*END

*D_NET _68_ 
*CONN
*I NOR2X1_3:B I *L 0.0227534
*I INVX1_21:Y O *D INVX1
*CAP
*RES
*END

*D_NET in115 
*CONN
*I NAND2X1_26:B I *L 0.0180112
*I NOR2X1_3:A I *L 0.0222369
*CAP
*RES
*END

*D_NET _69_ 
*CONN
*I AOI21X1_2:A I *L 0.0265613
*I NOR2X1_3:Y O *D NOR2X1
*CAP
*RES
*END

*D_NET _70_ 
*CONN
*I AOI21X1_2:B I *L 0.0268633
*I AND2X2_9:Y O *D AND2X2
*CAP
*RES
*END

*D_NET _71_ 
*CONN
*I OAI22X1_2:B I *L 0.0271075
*I NAND3X1_9:Y O *D NAND3X1
*CAP
*RES
*END

*D_NET in92 
*CONN
*I NAND2X1_28:B I *L 0.0180112
*I INVX1_22:A I *L 0.0134094
*CAP
*RES
*END

*D_NET _72_ 
*CONN
*I NAND2X1_18:B I *L 0.0180112
*I INVX1_22:Y O *D INVX1
*CAP
*RES
*END

*D_NET _73_ 
*CONN
*I OAI22X1_2:D I *L 0.027353
*I NAND2X1_18:Y O *D NAND2X1
*CAP
*RES
*END

*D_NET _74_ 
*CONN
*I OAI22X1_2:C I *L 0.026839
*I NAND2X1_19:Y O *D NAND2X1
*CAP
*RES
*END

*D_NET in105 
*CONN
*I NAND2X1_27:B I *L 0.0180112
*I OAI22X1_2:A I *L 0.0265291
*CAP
*RES
*END

*D_NET _75_ 
*CONN
*I AOI21X1_2:C I *L 0.02277
*I OAI22X1_2:Y O *D OAI22X1
*CAP
*RES
*END

*D_NET _76_ 
*CONN
*I NAND3X1_11:B I *L 0.022204
*I AOI21X1_2:Y O *D AOI21X1
*CAP
*RES
*END

*D_NET in40 
*CONN
*I NAND2X1_32:B I *L 0.0180112
*I INVX1_23:A I *L 0.0134094
*CAP
*RES
*END

*D_NET _77_ 
*CONN
*I NAND2X1_20:B I *L 0.0180112
*I INVX1_23:Y O *D INVX1
*CAP
*RES
*END

*D_NET _78_ 
*CONN
*I OAI22X1_3:B I *L 0.0271075
*I NAND2X1_20:Y O *D NAND2X1
*CAP
*RES
*END

*D_NET _79_ 
*CONN
*I OAI22X1_3:A I *L 0.0265291
*I NAND2X1_21:Y O *D NAND2X1
*CAP
*RES
*END

*D_NET in53 
*CONN
*I NAND2X1_31:B I *L 0.0180112
*I INVX1_24:A I *L 0.0134094
*CAP
*RES
*END

*D_NET _80_ 
*CONN
*I NAND2X1_22:B I *L 0.0180112
*I INVX1_24:Y O *D INVX1
*CAP
*RES
*END

*D_NET _81_ 
*CONN
*I OAI22X1_3:C I *L 0.026839
*I NAND2X1_22:Y O *D NAND2X1
*CAP
*RES
*END

*D_NET _82_ 
*CONN
*I OAI22X1_3:D I *L 0.027353
*I NAND2X1_23:Y O *D NAND2X1
*CAP
*RES
*END

*D_NET _83_ 
*CONN
*I NOR2X1_4:B I *L 0.0227534
*I OAI22X1_3:Y O *D OAI22X1
*CAP
*RES
*END

*D_NET _84_ 
*CONN
*I OAI22X1_4:B I *L 0.0271075
*I NAND3X1_10:Y O *D NAND3X1
*CAP
*RES
*END

*D_NET in66 
*CONN
*I NAND2X1_30:B I *L 0.0180112
*I INVX1_25:A I *L 0.0134094
*CAP
*RES
*END

*D_NET _85_ 
*CONN
*I NAND2X1_24:B I *L 0.0180112
*I INVX1_25:Y O *D INVX1
*CAP
*RES
*END

*D_NET _86_ 
*CONN
*I OAI22X1_4:D I *L 0.027353
*I NAND2X1_24:Y O *D NAND2X1
*CAP
*RES
*END

*D_NET _87_ 
*CONN
*I OAI22X1_4:C I *L 0.026839
*I NAND2X1_25:Y O *D NAND2X1
*CAP
*RES
*END

*D_NET in79 
*CONN
*I NAND2X1_29:B I *L 0.0180112
*I OAI22X1_4:A I *L 0.0265291
*CAP
*RES
*END

*D_NET _88_ 
*CONN
*I NOR2X1_4:A I *L 0.0222369
*I OAI22X1_4:Y O *D OAI22X1
*CAP
*RES
*END

*D_NET _89_ 
*CONN
*I NAND3X1_11:C I *L 0.0226301
*I NOR2X1_4:Y O *D NOR2X1
*CAP
*RES
*END

*D_NET _90_ 
*CONN
*I NOR2X1_5:B I *L 0.0227534
*I INVX1_26:Y O *D INVX1
*CAP
*RES
*END

*D_NET in14 
*CONN
*I NAND2X1_34:B I *L 0.0180112
*I NOR2X1_5:A I *L 0.0222369
*CAP
*RES
*END

*D_NET _91_ 
*CONN
*I AOI22X1_7:A I *L 0.0265618
*I NOR2X1_5:Y O *D NOR2X1
*CAP
*RES
*END

*D_NET _92_ 
*CONN
*I AOI22X1_7:B I *L 0.0268737
*I AND2X2_10:Y O *D AND2X2
*CAP
*RES
*END

*D_NET _93_ 
*CONN
*I NOR2X1_6:B I *L 0.0227534
*I INVX1_27:Y O *D INVX1
*CAP
*RES
*END

*D_NET in27 
*CONN
*I NAND2X1_33:B I *L 0.0180112
*I NOR2X1_6:A I *L 0.0222369
*CAP
*RES
*END

*D_NET _94_ 
*CONN
*I AOI22X1_7:C I *L 0.0270661
*I NOR2X1_6:Y O *D NOR2X1
*CAP
*RES
*END

*D_NET _95_ 
*CONN
*I AOI22X1_7:D I *L 0.0273706
*I AND2X2_11:Y O *D AND2X2
*CAP
*RES
*END

*D_NET _96_ 
*CONN
*I NAND3X1_11:A I *L 0.0222511
*I AOI22X1_7:Y O *D AOI22X1
*CAP
*RES
*END

*D_NET _97_ 
*CONN
*I NAND3X1_12:B I *L 0.022204
*I NAND2X1_26:Y O *D NAND2X1
*CAP
*RES
*END

*D_NET _98_ 
*CONN
*I NAND3X1_12:C I *L 0.0226301
*I AOI22X1_8:Y O *D AOI22X1
*CAP
*RES
*END

*D_NET Ckt432.I<0> 
*CONN
*I NAND2X1_38:A I *L 0.0177118
*I NAND3X1_12:Y O *D NAND3X1
*CAP
*RES
*END

*D_NET _99_ 
*CONN
*I NAND3X1_13:B I *L 0.022204
*I NAND2X1_27:Y O *D NAND2X1
*CAP
*RES
*END

*D_NET _100_ 
*CONN
*I NAND3X1_13:C I *L 0.0226301
*I AOI22X1_9:Y O *D AOI22X1
*CAP
*RES
*END

*D_NET Ckt432.I<1> 
*CONN
*I INVX1_32:A I *L 0.0134094
*I NAND2X1_38:B I *L 0.0180112
*I NAND3X1_13:Y O *D NAND3X1
*CAP
*RES
*END

*D_NET _101_ 
*CONN
*I NAND3X1_14:B I *L 0.022204
*I NAND2X1_28:Y O *D NAND2X1
*CAP
*RES
*END

*D_NET _102_ 
*CONN
*I NAND3X1_14:C I *L 0.0226301
*I AOI22X1_10:Y O *D AOI22X1
*CAP
*RES
*END

*D_NET Ckt432.I<2> 
*CONN
*I NAND3X1_23:A I *L 0.0222511
*I OR2X2_1:B I *L 0.0221869
*I NAND2X1_37:A I *L 0.0177118
*I NAND3X1_14:Y O *D NAND3X1
*CAP
*RES
*END

*D_NET _103_ 
*CONN
*I NAND3X1_15:B I *L 0.022204
*I NAND2X1_29:Y O *D NAND2X1
*CAP
*RES
*END

*D_NET _104_ 
*CONN
*I NAND3X1_15:C I *L 0.0226301
*I AOI22X1_11:Y O *D AOI22X1
*CAP
*RES
*END

*D_NET Ckt432.I<3> 
*CONN
*I INVX1_31:A I *L 0.0134094
*I NAND2X1_37:B I *L 0.0180112
*I NAND3X1_15:Y O *D NAND3X1
*CAP
*RES
*END

*D_NET _105_ 
*CONN
*I NAND3X1_16:B I *L 0.022204
*I NAND2X1_30:Y O *D NAND2X1
*CAP
*RES
*END

*D_NET _106_ 
*CONN
*I NAND3X1_16:C I *L 0.0226301
*I AOI22X1_12:Y O *D AOI22X1
*CAP
*RES
*END

*D_NET Ckt432.I<4> 
*CONN
*I NAND3X1_21:B I *L 0.022204
*I NAND2X1_35:A I *L 0.0177118
*I NAND3X1_16:Y O *D NAND3X1
*CAP
*RES
*END

*D_NET _107_ 
*CONN
*I NAND3X1_17:B I *L 0.022204
*I NAND2X1_31:Y O *D NAND2X1
*CAP
*RES
*END

*D_NET _108_ 
*CONN
*I NAND3X1_17:C I *L 0.0226301
*I AOI22X1_13:Y O *D AOI22X1
*CAP
*RES
*END

*D_NET Ckt432.I<5> 
*CONN
*I INVX1_34:A I *L 0.0134094
*I AND2X2_12:B I *L 0.0177358
*I NAND2X1_35:B I *L 0.0180112
*I NAND3X1_17:Y O *D NAND3X1
*CAP
*RES
*END

*D_NET _109_ 
*CONN
*I NAND3X1_18:B I *L 0.022204
*I NAND2X1_32:Y O *D NAND2X1
*CAP
*RES
*END

*D_NET _110_ 
*CONN
*I NAND3X1_18:C I *L 0.0226301
*I AOI22X1_14:Y O *D AOI22X1
*CAP
*RES
*END

*D_NET Ckt432.I<6> 
*CONN
*I AOI21X1_4:B I *L 0.0268633
*I AND2X2_12:A I *L 0.0180033
*I NAND2X1_36:A I *L 0.0177118
*I NAND3X1_18:Y O *D NAND3X1
*CAP
*RES
*END

*D_NET _111_ 
*CONN
*I NAND3X1_19:B I *L 0.022204
*I NAND2X1_33:Y O *D NAND2X1
*CAP
*RES
*END

*D_NET _112_ 
*CONN
*I NAND3X1_19:C I *L 0.0226301
*I AOI22X1_15:Y O *D AOI22X1
*CAP
*RES
*END

*D_NET Ckt432.I<7> 
*CONN
*I INVX1_33:A I *L 0.0134094
*I NAND2X1_36:B I *L 0.0180112
*I NAND3X1_19:Y O *D NAND3X1
*CAP
*RES
*END

*D_NET _113_ 
*CONN
*I NAND3X1_20:B I *L 0.022204
*I NAND2X1_34:Y O *D NAND2X1
*CAP
*RES
*END

*D_NET _114_ 
*CONN
*I NAND3X1_20:C I *L 0.0226301
*I AOI22X1_16:Y O *D AOI22X1
*CAP
*RES
*END

*D_NET Ckt432.I<8> 
*CONN
*I INVX1_28:A I *L 0.0134094
*I NAND3X1_20:Y O *D NAND3X1
*CAP
*RES
*END

*D_NET _115_ 
*CONN
*I AOI21X1_3:C I *L 0.02277
*I INVX1_28:Y O *D INVX1
*CAP
*RES
*END

*D_NET _116_ 
*CONN
*I OR2X2_1:A I *L 0.0228068
*I NOR2X1_7:A I *L 0.0222369
*I NAND2X1_35:Y O *D NAND2X1
*CAP
*RES
*END

*D_NET _117_ 
*CONN
*I INVX1_30:A I *L 0.0134094
*I NOR2X1_7:B I *L 0.0227534
*I NAND2X1_36:Y O *D NAND2X1
*CAP
*RES
*END

*D_NET _118_ 
*CONN
*I INVX1_29:A I *L 0.0134094
*I AOI21X1_3:A I *L 0.0265613
*I NOR2X1_7:Y O *D NOR2X1
*CAP
*RES
*END

*D_NET _119_ 
*CONN
*I NOR2X1_8:A I *L 0.0222369
*I NAND2X1_37:Y O *D NAND2X1
*CAP
*RES
*END

*D_NET _120_ 
*CONN
*I NOR2X1_8:B I *L 0.0227534
*I NAND2X1_38:Y O *D NAND2X1
*CAP
*RES
*END

*D_NET _121_ 
*CONN
*I AOI21X1_3:B I *L 0.0268633
*I NOR2X1_8:Y O *D NOR2X1
*CAP
*RES
*END

*D_NET _122_ 
*CONN
*I NAND3X1_22:A I *L 0.0222511
*I INVX1_30:Y O *D INVX1
*CAP
*RES
*END

*D_NET _123_ 
*CONN
*I NAND3X1_21:A I *L 0.0222511
*I INVX1_31:Y O *D INVX1
*CAP
*RES
*END

*D_NET _124_ 
*CONN
*I NAND3X1_23:C I *L 0.0226301
*I NAND3X1_21:C I *L 0.0226301
*I AND2X2_12:Y O *D AND2X2
*CAP
*RES
*END

*D_NET _125_ 
*CONN
*I NAND3X1_24:B I *L 0.022204
*I NAND3X1_22:C I *L 0.0226301
*I NAND3X1_21:Y O *D NAND3X1
*CAP
*RES
*END

*D_NET _126_ 
*CONN
*I NAND3X1_22:B I *L 0.022204
*I OR2X2_1:Y O *D OR2X2
*CAP
*RES
*END

*D_NET _127_ 
*CONN
*I NAND3X1_23:B I *L 0.022204
*I INVX1_32:Y O *D INVX1
*CAP
*RES
*END

*D_NET _128_ 
*CONN
*I NAND3X1_24:C I *L 0.0226301
*I NAND3X1_23:Y O *D NAND3X1
*CAP
*RES
*END

*D_NET _129_ 
*CONN
*I AOI21X1_4:C I *L 0.02277
*I INVX1_33:Y O *D INVX1
*CAP
*RES
*END

*D_NET _130_ 
*CONN
*I AOI21X1_4:A I *L 0.0265613
*I INVX1_34:Y O *D INVX1
*CAP
*RES
*END

*D_NET _131_ 
*CONN
*I NAND3X1_24:A I *L 0.0222511
*I AOI21X1_4:Y O *D AOI21X1
*CAP
*RES
*END


