*SPEF "IEEE 1481-2009"
*DESIGN "crc32"
*DATE "2019-05-22 01:28:33.835185"
*VENDOR "AUC_STUDENTS"
*PROGRAM "Def2Spef_Converter"
*VERSION "0.0"
*DESIGN_FLOW "PROJECT2_FLOW"
*DIVIDER /
*DELIMITER :
*BUS_DELIMITER <>
*T_UNIT 1 PS
*C_UNIT 1 FF
*R_UNIT 1 KOHM
*L_UNIT 1 UH

*NAME_MAP

*1 XOR2X1_9
*2 XOR2X1_8
*3 XOR2X1_7
*4 XOR2X1_6
*5 FILL_3_0_1
*6 FILL_3_0_0
*7 XOR2X1_3
*8 XOR2X1_2
*9 XOR2X1_1
*10 FILL_11_0_2
*11 FILL_11_0_1
*12 FILL_11_0_0
*13 FILL_5_1_0
*14 FILL_5_1_1
*15 FILL_5_1_2
*16 NAND2X1_150
*17 NAND2X1_151
*18 NAND2X1_152
*19 NAND2X1_153
*20 NAND2X1_154
*21 NAND2X1_155
*22 NAND2X1_156
*23 NAND2X1_157
*24 NAND2X1_158
*25 NAND2X1_159
*26 BUFX4_3
*27 FILL_3_0_2
*28 XOR2X1_5
*29 NOR2X1_28
*30 NOR2X1_29
*31 NAND2X1_58
*32 NAND2X1_59
*33 NOR2X1_20
*34 NOR2X1_21
*35 NOR2X1_22
*36 NAND2X1_51
*37 NOR2X1_24
*38 NAND2X1_57
*39 NAND2X1_54
*40 NAND2X1_55
*41 FILL_1_1_0
*42 FILL_1_1_1
*43 FILL_1_1_2
*44 DFFSR_13
*45 DFFSR_26
*46 OAI21X1_67
*47 BUFX4_33
*48 BUFX4_32
*49 BUFX4_31
*50 BUFX4_30
*51 BUFX4_36
*52 BUFX4_35
*53 BUFX4_34
*54 NAND2X1_27
*55 NAND2X1_26
*56 NAND2X1_25
*57 NAND2X1_24
*58 NAND2X1_23
*59 NAND2X1_22
*60 NAND2X1_21
*61 NAND2X1_20
*62 FILL_8_2
*63 FILL_8_1
*64 OAI21X1_59
*65 OAI21X1_58
*66 FILL_7_1_2
*67 FILL_7_1_0
*68 FILL_7_1_1
*69 OAI21X1_53
*70 OAI21X1_52
*71 OAI21X1_51
*72 OAI21X1_50
*73 OAI21X1_57
*74 OAI21X1_56
*75 OAI21X1_55
*76 OAI21X1_54
*77 NAND2X1_147
*78 AOI21X1_17
*79 AOI21X1_16
*80 AOI21X1_15
*81 AOI21X1_14
*82 AOI21X1_13
*83 AOI21X1_12
*84 AOI21X1_11
*85 AOI21X1_10
*86 NAND3X1_15
*87 XNOR2X1_30
*88 AOI21X1_19
*89 AOI21X1_18
*90 NAND2X1_28
*91 FILL_9_0_1
*92 FILL_9_0_0
*93 FILL_9_0_2
*94 FILL_2_0_2
*95 NAND2X1_8
*96 FILL_2_0_0
*97 FILL_2_0_1
*98 NAND2X1_9
*99 NOR2X1_6
*100 FILL_3_1
*101 FILL_3_2
*102 FILL_3_3
*103 FILL_4_1_2
*104 FILL_1_2
*105 NAND2X1_4
*106 FILL_1_1
*107 NAND2X1_118
*108 NAND2X1_119
*109 NAND2X1_5
*110 NAND2X1_114
*111 NAND2X1_115
*112 NAND2X1_116
*113 NAND2X1_117
*114 NAND2X1_110
*115 NAND2X1_6
*116 NAND2X1_112
*117 NAND2X1_113
*118 NAND2X1_7
*119 NAND2X1_102
*120 NOR2X1_1
*121 FILL_11_1_2
*122 NOR2X1_3
*123 NOR2X1_2
*124 NOR2X1_5
*125 NAND2X1_101
*126 NOR2X1_7
*127 NAND3X1_50
*128 BUFX2_31
*129 NOR2X1_8
*130 BUFX2_33
*131 NAND2X1_3
*132 FILL_5_2
*133 FILL_11_1_0
*134 BUFX2_37
*135 FILL_5_1
*136 NAND2X1_16
*137 NAND2X1_17
*138 NAND2X1_14
*139 NAND2X1_15
*140 NAND2X1_12
*141 NAND2X1_13
*142 NAND2X1_10
*143 NAND2X1_11
*144 NAND3X1_55
*145 NAND2X1_18
*146 FILL_5_0_0
*147 FILL_5_0_2
*148 NAND2X1_149
*149 OAI21X1_16
*150 NOR2X1_13
*151 XNOR2X1_34
*152 NOR2X1_12
*153 DFFSR_21
*154 NOR2X1_15
*155 XNOR2X1_36
*156 OAI21X1_12
*157 NAND3X1_59
*158 NAND3X1_58
*159 XNOR2X1_37
*160 OAI21X1_11
*161 NAND3X1_51
*162 AND2X2_12
*163 NAND3X1_53
*164 NAND3X1_52
*165 FILL_5_0_1
*166 NAND3X1_54
*167 NAND3X1_57
*168 AND2X2_13
*169 OAI21X1_17
*170 NOR2X1_19
*171 OAI21X1_15
*172 OAI21X1_14
*173 OAI21X1_13
*174 NOR2X1_14
*175 NOR2X1_17
*176 NOR2X1_16
*177 AOI22X1_12
*178 AOI22X1_13
*179 AOI22X1_10
*180 AND2X2_11
*181 AOI22X1_16
*182 OAI21X1_19
*183 AOI22X1_15
*184 DFFSR_11
*185 XNOR2X1_44
*186 XNOR2X1_47
*187 XNOR2X1_46
*188 XNOR2X1_41
*189 DFFSR_14
*190 XNOR2X1_43
*191 XNOR2X1_42
*192 DFFSR_19
*193 DFFSR_18
*194 XNOR2X1_49
*195 XNOR2X1_48
*196 NAND2X1_52
*197 AOI22X1_14
*198 NAND2X1_53
*199 BUFX4_1
*200 OAI21X1_18
*201 NAND2X1_50
*202 OAI22X1_8
*203 XNOR2X1_45
*204 NOR2X1_23
*205 AND2X2_1
*206 DFFSR_10
*207 NAND2X1_56
*208 OAI22X1_2
*209 OAI22X1_3
*210 OAI22X1_4
*211 OAI22X1_5
*212 OAI22X1_6
*213 OAI22X1_7
*214 FILL_13_0_1
*215 NOR3X1_1
*216 NOR3X1_2
*217 NOR3X1_3
*218 NOR3X1_4
*219 NOR3X1_5
*220 NOR3X1_6
*221 INVX1_25
*222 INVX1_24
*223 INVX1_27
*224 NOR2X1_27
*225 INVX1_21
*226 INVX1_20
*227 INVX1_23
*228 INVX1_22
*229 OAI21X1_62
*230 OAI21X1_63
*231 OAI21X1_60
*232 OAI21X1_61
*233 OAI21X1_66
*234 DFFSR_17
*235 OAI21X1_64
*236 OAI21X1_65
*237 OAI21X1_68
*238 DFFSR_16
*239 FILL_13_1_1
*240 FILL_13_1_2
*241 AOI21X1_28
*242 AOI21X1_29
*243 AOI21X1_26
*244 AOI21X1_27
*245 AOI21X1_24
*246 AOI21X1_25
*247 AOI21X1_22
*248 AOI21X1_23
*249 AOI21X1_20
*250 AOI21X1_21
*251 FILL_8_0_0
*252 FILL_8_0_1
*253 FILL_8_0_2
*254 XOR2X1_10
*255 FILL_10_1_2
*256 FILL_10_1_1
*257 FILL_10_1_0
*258 XOR2X1_4
*259 NAND2X1_64
*260 BUFX2_32
*261 AOI22X1_11
*262 FILL_12_1_1
*263 FILL_12_1_0
*264 FILL_12_1_2
*265 NAND2X1_165
*266 NAND2X1_164
*267 NAND2X1_166
*268 NAND2X1_161
*269 NAND2X1_160
*270 NAND2X1_163
*271 NAND2X1_162
*272 NOR2X1_11
*273 BUFX2_34
*274 NAND2X1_49
*275 NAND2X1_48
*276 NAND3X1_17
*277 NAND3X1_16
*278 NAND3X1_11
*279 NAND3X1_10
*280 NAND3X1_13
*281 NAND3X1_12
*282 NAND2X1_41
*283 NAND2X1_40
*284 NAND2X1_43
*285 NAND2X1_42
*286 NAND2X1_45
*287 NAND2X1_44
*288 NAND2X1_47
*289 NAND2X1_46
*290 NOR2X1_10
*291 FILL_6_1
*292 FILL_6_3
*293 FILL_6_2
*294 DFFSR_12
*295 BUFX2_36
*296 FILL_4_1
*297 OAI22X1_1
*298 NAND2X1_29
*299 DFFSR_15
*300 NOR2X1_25
*301 OAI21X1_28
*302 OAI21X1_29
*303 OAI21X1_26
*304 NAND3X1_56
*305 OAI21X1_24
*306 OAI21X1_25
*307 OAI21X1_22
*308 OAI21X1_23
*309 OAI21X1_20
*310 OAI21X1_21
*311 DFFSR_28
*312 DFFSR_29
*313 XNOR2X1_38
*314 XNOR2X1_39
*315 FILL_13_0_0
*316 DFFSR_20
*317 XNOR2X1_35
*318 DFFSR_22
*319 DFFSR_23
*320 DFFSR_24
*321 DFFSR_25
*322 AND2X2_10
*323 XNOR2X1_33
*324 FILL_13_0_2
*325 INVX1_29
*326 FILL_2_1
*327 FILL_2_3
*328 FILL_2_2
*329 INVX1_14
*330 INVX1_15
*331 INVX1_16
*332 INVX1_17
*333 INVX1_10
*334 INVX1_11
*335 INVX1_12
*336 INVX1_13
*337 INVX2_1
*338 INVX1_18
*339 INVX1_19
*340 FILL_8_1_1
*341 FILL_8_1_0
*342 FILL_8_1_2
*343 AOI22X1_8
*344 NAND3X1_19
*345 AOI22X1_9
*346 NAND2X1_121
*347 NAND2X1_120
*348 NAND2X1_123
*349 NAND2X1_122
*350 NAND2X1_125
*351 NAND2X1_124
*352 NAND2X1_127
*353 NAND2X1_126
*354 NAND2X1_129
*355 NAND2X1_128
*356 DFFSR_27
*357 NAND3X1_18
*358 XNOR2X1_8
*359 XNOR2X1_9
*360 XOR2X1_24
*361 XOR2X1_25
*362 XOR2X1_22
*363 XOR2X1_23
*364 XOR2X1_20
*365 XOR2X1_21
*366 XNOR2X1_1
*367 XNOR2X1_2
*368 XNOR2X1_3
*369 XNOR2X1_4
*370 XNOR2X1_5
*371 XNOR2X1_6
*372 XNOR2X1_7
*373 FILL_10_0_2
*374 FILL_10_0_0
*375 FILL_10_0_1
*376 INVX4_3
*377 INVX4_2
*378 NAND2X1_83
*379 NAND2X1_82
*380 XNOR2X1_40
*381 INVX1_7
*382 NAND2X1_98
*383 NAND2X1_99
*384 NAND2X1_96
*385 NAND2X1_97
*386 NAND2X1_94
*387 NAND2X1_95
*388 NAND2X1_92
*389 NAND2X1_93
*390 NAND2X1_90
*391 NAND2X1_91
*392 FILL_12_0_0
*393 FILL_12_0_1
*394 FILL_12_0_2
*395 NAND3X1_68
*396 NAND3X1_69
*397 NAND3X1_64
*398 NAND3X1_65
*399 NAND3X1_66
*400 NAND3X1_67
*401 NAND3X1_60
*402 NAND3X1_61
*403 NAND3X1_62
*404 NAND3X1_63
*405 NAND3X1_9
*406 NAND3X1_8
*407 NAND3X1_5
*408 NAND3X1_4
*409 NAND3X1_7
*410 NAND3X1_6
*411 NAND3X1_1
*412 NAND3X1_3
*413 NAND3X1_2
*414 XNOR2X1_31
*415 FILL_0_0_0
*416 FILL_0_0_1
*417 FILL_0_0_2
*418 XNOR2X1_32
*419 XNOR2X1_17
*420 FILL_11_1_1
*421 OAI21X1_71
*422 OAI21X1_70
*423 OAI21X1_73
*424 OAI21X1_72
*425 OAI21X1_75
*426 OAI21X1_74
*427 OAI21X1_77
*428 OAI21X1_76
*429 OAI21X1_78
*430 INVX8_2
*431 INVX8_1
*432 NAND2X1_148
*433 FILL_6_0_2
*434 AOI21X1_30
*435 FILL_6_0_0
*436 FILL_6_0_1
*437 BUFX2_13
*438 BUFX2_12
*439 BUFX2_11
*440 BUFX2_10
*441 BUFX2_17
*442 BUFX2_16
*443 BUFX2_15
*444 BUFX2_14
*445 BUFX2_19
*446 BUFX2_18
*447 NAND2X1_88
*448 NAND2X1_87
*449 INVX1_28
*450 NAND2X1_86
*451 BUFX4_20
*452 NAND2X1_81
*453 XOR2X1_26
*454 XOR2X1_27
*455 INVX1_2
*456 INVX1_3
*457 INVX1_1
*458 INVX1_6
*459 XNOR2X1_61
*460 INVX1_4
*461 INVX1_5
*462 INVX1_8
*463 INVX1_9
*464 NAND2X1_78
*465 NAND2X1_79
*466 NAND2X1_74
*467 NAND2X1_75
*468 NAND2X1_76
*469 NAND2X1_77
*470 NAND2X1_70
*471 NAND2X1_71
*472 NAND2X1_72
*473 NAND2X1_73
*474 NAND3X1_37
*475 FILL_13_2
*476 NOR2X1_40
*477 FILL_9_1_1
*478 INVX4_1
*479 NOR2X1_41
*480 FILL_9_1_2
*481 BUFX4_19
*482 BUFX4_18
*483 AOI21X1_5
*484 AOI21X1_4
*485 AOI21X1_3
*486 AOI21X1_2
*487 AOI21X1_1
*488 BUFX4_11
*489 BUFX4_10
*490 BUFX4_13
*491 BUFX4_12
*492 BUFX4_15
*493 BUFX4_14
*494 AOI21X1_9
*495 AOI21X1_8
*496 DFFSR_5
*497 DFFSR_4
*498 DFFSR_7
*499 DFFSR_6
*500 DFFSR_1
*501 DFFSR_3
*502 DFFSR_2
*503 DFFSR_9
*504 DFFSR_8
*505 FILL_10_1
*506 FILL_10_2
*507 BUFX4_17
*508 OAI21X1_39
*509 OAI21X1_38
*510 OAI21X1_35
*511 OAI21X1_34
*512 OAI21X1_37
*513 OAI21X1_36
*514 OAI21X1_31
*515 OAI21X1_30
*516 OAI21X1_33
*517 OAI21X1_32
*518 XNOR2X1_23
*519 XNOR2X1_22
*520 XNOR2X1_21
*521 XNOR2X1_20
*522 XNOR2X1_27
*523 XNOR2X1_26
*524 XNOR2X1_25
*525 NAND2X1_39
*526 FILL_14_1
*527 DFFSR_32
*528 XNOR2X1_29
*529 XNOR2X1_28
*530 NAND3X1_28
*531 NAND3X1_29
*532 NAND3X1_20
*533 NAND3X1_21
*534 NAND3X1_22
*535 NAND3X1_23
*536 NAND3X1_24
*537 NAND3X1_25
*538 NAND3X1_26
*539 NAND3X1_27
*540 OAI21X1_7
*541 OAI21X1_6
*542 OAI21X1_5
*543 OAI21X1_4
*544 OAI21X1_3
*545 OAI21X1_2
*546 OAI21X1_1
*547 AOI21X1_6
*548 OAI21X1_27
*549 AND2X2_16
*550 OAI21X1_9
*551 OAI21X1_8
*552 NAND2X1_30
*553 BUFX4_9
*554 BUFX4_8
*555 NAND2X1_31
*556 BUFX4_5
*557 BUFX4_4
*558 BUFX4_7
*559 BUFX4_6
*560 FILL_4_0_0
*561 FILL_4_0_1
*562 FILL_4_0_2
*563 BUFX4_2
*564 BUFX2_9
*565 BUFX2_8
*566 BUFX2_7
*567 BUFX2_6
*568 BUFX2_5
*569 BUFX2_4
*570 BUFX2_3
*571 BUFX2_2
*572 BUFX2_1
*573 FILL_0_1_1
*574 FILL_0_1_0
*575 FILL_0_1_2
*576 NAND2X1_80
*577 AND2X2_14
*578 NAND2X1_136
*579 NAND2X1_137
*580 NAND2X1_134
*581 NAND2X1_135
*582 NAND2X1_132
*583 NAND2X1_133
*584 NAND2X1_130
*585 NAND2X1_131
*586 BUFX4_16
*587 NAND2X1_138
*588 NAND2X1_139
*589 XOR2X1_19
*590 XOR2X1_18
*591 AND2X2_15
*592 XOR2X1_13
*593 XOR2X1_12
*594 XOR2X1_11
*595 NOR2X1_26
*596 XOR2X1_17
*597 XOR2X1_16
*598 XOR2X1_15
*599 XOR2X1_14
*600 FILL_6_1_2
*601 FILL_6_1_1
*602 FILL_6_1_0
*603 OAI21X1_10
*604 AND2X2_4
*605 AND2X2_5
*606 AND2X2_6
*607 AND2X2_7
*608 INVX2_9
*609 INVX2_8
*610 AND2X2_2
*611 AND2X2_3
*612 INVX2_5
*613 INVX2_4
*614 INVX2_7
*615 INVX2_6
*616 AND2X2_8
*617 AND2X2_9
*618 INVX2_3
*619 INVX2_2
*620 NAND2X1_143
*621 NAND2X1_142
*622 NAND2X1_141
*623 NAND2X1_140
*624 NAND2X1_89
*625 NAND2X1_146
*626 NAND2X1_145
*627 NAND2X1_144
*628 NAND2X1_85
*629 AOI22X1_1
*630 AOI22X1_2
*631 AOI22X1_3
*632 AOI22X1_4
*633 AOI22X1_5
*634 AOI22X1_6
*635 AOI22X1_7
*636 NAND3X1_70
*637 NOR2X1_37
*638 NOR2X1_36
*639 NOR2X1_35
*640 NOR2X1_34
*641 NOR2X1_33
*642 NOR2X1_32
*643 NOR2X1_31
*644 NOR2X1_30
*645 NOR2X1_39
*646 XNOR2X1_60
*647 NAND2X1_38
*648 BUFX4_21
*649 BUFX4_22
*650 BUFX4_23
*651 BUFX4_24
*652 BUFX4_25
*653 BUFX4_26
*654 BUFX4_27
*655 BUFX4_28
*656 BUFX4_29
*657 NAND2X1_32
*658 NAND2X1_33
*659 NAND2X1_34
*660 NAND2X1_35
*661 NAND2X1_36
*662 NAND2X1_37
*663 DFFSR_30
*664 XNOR2X1_18
*665 XNOR2X1_19
*666 OAI21X1_44
*667 OAI21X1_45
*668 OAI21X1_46
*669 OAI21X1_47
*670 OAI21X1_40
*671 OAI21X1_41
*672 OAI21X1_42
*673 OAI21X1_43
*674 XNOR2X1_12
*675 XNOR2X1_13
*676 XNOR2X1_10
*677 XNOR2X1_11
*678 OAI21X1_48
*679 OAI21X1_49
*680 XNOR2X1_14
*681 XNOR2X1_15
*682 BUFX2_26
*683 BUFX2_27
*684 BUFX2_24
*685 BUFX2_25
*686 BUFX2_22
*687 BUFX2_23
*688 BUFX2_20
*689 BUFX2_21
*690 XNOR2X1_16
*691 NOR2X1_18
*692 BUFX2_28
*693 BUFX2_29
*694 FILL_3_1_2
*695 FILL_13_3
*696 FILL_3_1_0
*697 FILL_3_1_1
*698 NAND2X1_84
*699 NAND2X1_111
*700 FILL_1_0_1
*701 FILL_1_0_0
*702 FILL_1_0_2
*703 FILL_4_1_1
*704 FILL_4_1_0
*705 NAND2X1_109
*706 NAND2X1_108
*707 NAND2X1_107
*708 NAND2X1_106
*709 NAND2X1_105
*710 NAND2X1_104
*711 NAND2X1_103
*712 NAND2X1_1
*713 NAND2X1_2
*714 NAND2X1_100
*715 XNOR2X1_24
*716 DFFSR_31
*717 NAND2X1_63
*718 NAND2X1_62
*719 NAND2X1_61
*720 NAND2X1_60
*721 NAND2X1_67
*722 NAND2X1_66
*723 NAND2X1_65
*724 NAND3X1_14
*725 NAND2X1_69
*726 NAND2X1_68
*727 FILL_7_0_2
*728 FILL_7_0_1
*729 FILL_7_0_0
*730 OAI21X1_69
*731 FILL_11_1
*732 FILL_11_2
*733 FILL_13_1
*734 NOR2X1_4
*735 NAND3X1_48
*736 NAND3X1_49
*737 NAND3X1_42
*738 NAND3X1_43
*739 NAND3X1_40
*740 NAND3X1_41
*741 NAND3X1_46
*742 NAND3X1_47
*743 NAND3X1_44
*744 NAND3X1_45
*745 NOR2X1_9
*746 BUFX2_30
*747 NOR2X1_38
*748 XNOR2X1_56
*749 XNOR2X1_57
*750 XNOR2X1_54
*751 XNOR2X1_55
*752 XNOR2X1_52
*753 XNOR2X1_53
*754 XNOR2X1_50
*755 XNOR2X1_51
*756 BUFX2_35
*757 XNOR2X1_58
*758 XNOR2X1_59
*759 FILL_2_1_2
*760 FILL_2_1_1
*761 FILL_2_1_0
*762 NAND3X1_39
*763 NAND3X1_38
*764 FILL_9_1_0
*765 NAND3X1_36
*766 NAND3X1_35
*767 NAND3X1_34
*768 NAND3X1_33
*769 NAND3X1_32
*770 NAND3X1_31
*771 NAND3X1_30
*772 INVX1_30
*773 INVX1_31
*774 AOI21X1_7
*775 OR2X2_6
*776 OR2X2_5
*777 OR2X2_4
*778 OR2X2_3
*779 OR2X2_2
*780 OR2X2_1
*781 NOR2X1_42
*782 NAND2X1_19
*783 FILL_13_1_0
*784 INVX1_26
*785 _256_
*786 _539__28_bF$buf0
*787 _539__28_bF$buf1
*788 _539__28_bF$buf2
*789 _539__28_bF$buf3
*790 _182_
*791 _488_
*792 _240_
*793 _82_
*794 _79_
*795 _281_
*796 _276_
*797 _194_
*798 _176_
*799 _503_
*800 _100_
*801 _41_
*802 _506_
*803 _34_
*804 _171_
*805 _296_
*806 _130_
*807 _535_
*808 _26_
*809 _288_
*810 _344_
*811 _109_
*812 _206_
*813 _356_
*814 _55_
*815 _213_
*816 _224_
*817 _415_
*818 _539_<12>
*819 _271_
*820 _0_<21>
*821 _539_<24>
*822 _539_<8>
*823 _408_
*824 crc_out<21>
*825 _139_
*826 _514_
*827 _472_
*828 _6_
*829 _522_
*830 _116_
*831 _513_
*832 data_in<7>
*833 _403_
*834 _9_
*835 _70_
*836 _481_
*837 _228_
*838 _208_
*839 _539_<1>
*840 _386_
*841 _189_
*842 _236_
*843 _469_
*844 _318_
*845 _362_
*846 _451_
*847 crc_out<24>
*848 _321_
*849 _445_
*850 _374_
*851 data_in<0>
*852 _396_
*853 _261_
*854 _0_<10>
*855 _539_<23>
*856 _242_
*857 _391_
*858 _421_
*859 crc_out<12>
*860 _410_
*861 _419_
*862 _68_
*863 _143_
*864 _12_
*865 _153_
*866 _29_
*867 _336_
*868 _266_
*869 _95_
*870 _48_
*871 _304_
*872 _210_
*873 _89_
*874 crc_out<23>
*875 _277_
*876 _123_
*877 _258_
*878 _19_
*879 _154_
*880 _162_
*881 _178_
*882 _328_
*883 _233_
*884 _244_
*885 _272_
*886 _190_
*887 _507_
*888 _407_
*889 _112_
*890 _517_
*891 _105_
*892 _500_
*893 _22_
*894 _119_
*895 _45_
*896 crc_out<1>
*897 _352_
*898 _75_
*899 _0_<25>
*900 crc_out<19>
*901 _63_
*902 _2_
*903 _349_
*904 _141_
*905 _313_
*906 _435_
*907 _460_
*908 _527_
*909 _477_
*910 _5_
*911 _499_
*912 _467_
*913 _539_<5>
*914 _485_
*915 _199_
*916 _428_
*917 _382_
*918 _398_
*919 _220_
*920 _539_<27>
*921 crc_out<28>
*922 _455_
*923 _325_
*924 _441_
*925 _370_
*926 _0_<22>
*927 _0_<19>
*928 _331_
*929 _265_
*930 _215_
*931 _158_
*932 _539_<17>
*933 _309_
*934 _338_
*935 _448_
*936 _147_
*937 _157_
*938 _167_
*939 _300_
*940 _355_
*941 _52_
*942 _497_
*943 _253_
*944 _91_
*945 crc_en_bF$buf0
*946 _292_
*947 crc_en
*948 _187_
*949 _85_
*950 _169_
*951 _197_
*952 _284_
*953 _238_
*954 _175_
*955 _539_<30>
*956 _127_
*957 crc_out<17>
*958 crc_out<27>
*959 _31_
*960 _137_
*961 data_in<5>
*962 _379_
*963 _25_
*964 _539__30_bF$buf3
*965 _539__30_bF$buf2
*966 _539__30_bF$buf1
*967 _539__30_bF$buf0
*968 _509_
*969 _341_
*970 _264_
*971 _227_
*972 _1_
*973 _523_
*974 _473_
*975 _512_
*976 _402_
*977 _115_
*978 crc_out<30>
*979 crc_out<5>
*980 clk
*981 _528_
*982 _474_
*983 _480_
*984 _8_
*985 _71_
*986 _387_
*987 _237_
*988 _17_
*989 _317_
*990 _351_
*991 _452_
*992 _367_
*993 _0_<8>
*994 _389_
*995 _377_
*996 _90_
*997 _395_
*998 _168_
*999 _432_
*1000 _463_
*1001 _67_
*1002 _140_
*1003 _539_<13>
*1004 _269_
*1005 _0_<18>
*1006 _305_
*1007 _0_<26>
*1008 _250_
*1009 _96_
*1010 _133_
*1011 _184_
*1012 _297_
*1013 _205_
*1014 _88_
*1015 _342_
*1016 _539_<0>
*1017 _259_
*1018 _204_
*1019 _120_
*1020 _32_
*1021 _163_
*1022 _298_
*1023 _539__29_bF$buf1
*1024 _539__29_bF$buf0
*1025 _539__29_bF$buf3
*1026 _539__29_bF$buf2
*1027 _81_
*1028 _76_
*1029 _493_
*1030 _257_
*1031 _138_
*1032 _247_
*1033 _183_
*1034 data_in<1>
*1035 _539_<18>
*1036 _193_
*1037 _280_
*1038 _524_
*1039 _539_<22>
*1040 _101_
*1041 _504_
*1042 _170_
*1043 _287_
*1044 _534_
*1045 _35_
*1046 crc_out<13>
*1047 _243_
*1048 _21_
*1049 _56_
*1050 _345_
*1051 _40_
*1052 _519_
*1053 _0_<16>
*1054 _218_
*1055 _202_
*1056 _62_
*1057 _14_
*1058 _436_
*1059 _312_
*1060 _364_
*1061 _420_
*1062 _539_<29>
*1063 data_in<6>
*1064 crc_out<22>
*1065 _4_
*1066 _466_
*1067 crc_out<9>
*1068 _484_
*1069 _223_
*1070 _383_
*1071 _198_
*1072 _0_<4>
*1073 _468_
*1074 _430_
*1075 _456_
*1076 _363_
*1077 _444_
*1078 _322_
*1079 _373_
*1080 _411_
*1081 rst
*1082 _260_
*1083 _58_
*1084 _508_
*1085 _0_<13>
*1086 _390_
*1087 _416_
*1088 _0_<3>
*1089 _144_
*1090 _530_
*1091 _152_
*1092 crc_out<0>
*1093 _13_
*1094 _92_
*1095 _43_
*1096 _301_
*1097 _201_
*1098 _84_
*1099 _494_
*1100 _0_<30>
*1101 _538_
*1102 _239_
*1103 _180_
*1104 _293_
*1105 _278_
*1106 _196_
*1107 _174_
*1108 _283_
*1109 _294_
*1110 _136_
*1111 _539_<4>
*1112 _533_
*1113 _36_
*1114 _24_
*1115 _378_
*1116 _53_
*1117 _346_
*1118 _539_<26>
*1119 _230_
*1120 _273_
*1121 _111_
*1122 _0_<23>
*1123 _539_<14>
*1124 _516_
*1125 _406_
*1126 crc_out<11>
*1127 _106_
*1128 _401_
*1129 _118_
*1130 _44_
*1131 _438_
*1132 _539_<3>
*1133 _72_
*1134 _443_
*1135 _10_
*1136 _516__bF$buf2
*1137 _316_
*1138 _453_
*1139 _360_
*1140 _424_
*1141 _376_
*1142 _539_<31>
*1143 _394_
*1144 _412_
*1145 _423_
*1146 crc_out<14>
*1147 _462_
*1148 _0_<12>
*1149 data_in<2>
*1150 crc_out<26>
*1151 _458_
*1152 _0_<28>
*1153 _539__31_bF$buf2
*1154 _539__31_bF$buf3
*1155 _539__31_bF$buf0
*1156 _539__31_bF$buf1
*1157 _66_
*1158 _326_
*1159 _330_
*1160 _440_
*1161 _358_
*1162 _540__bF$buf4
*1163 _540__bF$buf2
*1164 _540__bF$buf3
*1165 _540__bF$buf0
*1166 _540__bF$buf1
*1167 _124_
*1168 _216_
*1169 crc_out<4>
*1170 _148_
*1171 crc_out<31>
*1172 _350_
*1173 _217_
*1174 _156_
*1175 _164_
*1176 _77_
*1177 _80_
*1178 _254_
*1179 _246_
*1180 _102_
*1181 _274_
*1182 _192_
*1183 _229_
*1184 _0_<9>
*1185 _114_
*1186 _505_
*1187 _286_
*1188 _173_
*1189 _442_
*1190 _20_
*1191 _518_
*1192 crc_out<3>
*1193 _57_
*1194 _490_
*1195 _0_<0>
*1196 _219_
*1197 _47_
*1198 _61_
*1199 _539_<10>
*1200 _0_<27>
*1201 _520_
*1202 clk_bF$buf4
*1203 clk_bF$buf3
*1204 clk_bF$buf2
*1205 clk_bF$buf1
*1206 clk_bF$buf0
*1207 _311_
*1208 _433_
*1209 _539_<7>
*1210 _511_
*1211 _405_
*1212 _475_
*1213 _529_
*1214 _234_
*1215 _483_
*1216 _226_
*1217 _384_
*1218 _359_
*1219 _354_
*1220 _323_
*1221 _38_
*1222 _539_<19>
*1223 _447_
*1224 _372_
*1225 crc_out<10>
*1226 _59_
*1227 _539_<21>
*1228 _263_
*1229 _417_
*1230 _393_
*1231 _145_
*1232 _151_
*1233 _268_
*1234 _50_
*1235 _334_
*1236 _212_
*1237 _97_
*1238 _302_
*1239 _479_
*1240 _251_
*1241 _87_
*1242 _128_
*1243 crc_out<8>
*1244 _537_
*1245 _185_
*1246 _290_
*1247 _132_
*1248 _121_
*1249 _98_
*1250 _160_
*1251 _135_
*1252 _539_<28>
*1253 _0_<15>
*1254 _33_
*1255 _299_
*1256 _0_<17>
*1257 _270_
*1258 _225_
*1259 _0_<5>
*1260 _515_
*1261 _409_
*1262 _110_
*1263 _357_
*1264 _525_
*1265 crc_en_bF$buf2
*1266 crc_en_bF$buf3
*1267 _117_
*1268 crc_en_bF$buf1
*1269 _502_
*1270 crc_en_bF$buf4
*1271 _400_
*1272 _209_
*1273 crc_out<7>
*1274 _439_
*1275 _231_
*1276 _73_
*1277 _188_
*1278 _65_
*1279 _15_
*1280 _478_
*1281 _470_
*1282 _315_
*1283 _437_
*1284 _365_
*1285 _200_
*1286 _427_
*1287 _487_
*1288 _425_
*1289 _7_
*1290 _471_
*1291 _380_
*1292 _465_
*1293 _369_
*1294 _222_
*1295 _539_<9>
*1296 _539_<15>
*1297 _327_
*1298 _267_
*1299 _249_
*1300 _539_<25>
*1301 _337_
*1302 _307_
*1303 _94_
*1304 _0_<20>
*1305 _207_
*1306 _49_
*1307 _125_
*1308 _149_
*1309 _491_
*1310 _107_
*1311 _155_
*1312 _122_
*1313 _18_
*1314 _165_
*1315 _179_
*1316 _539_<2>
*1317 _368_
*1318 _42_
*1319 _495_
*1320 _306_
*1321 _93_
*1322 _78_
*1323 _489_
*1324 _255_
*1325 _83_
*1326 _177_
*1327 _248_
*1328 _241_
*1329 _181_
*1330 crc_out<25>
*1331 _0_<11>
*1332 _195_
*1333 _282_
*1334 _279_
*1335 _0_<29>
*1336 _295_
*1337 _532_
*1338 _131_
*1339 _289_
*1340 data_in<3>
*1341 _37_
*1342 _333_
*1343 _27_
*1344 _108_
*1345 _347_
*1346 _54_
*1347 _60_
*1348 crc_out<15>
*1349 _510_
*1350 _3_
*1351 _521_
*1352 _461_
*1353 _310_
*1354 _434_
*1355 _498_
*1356 _526_
*1357 _404_
*1358 _348_
*1359 _482_
*1360 _476_
*1361 _385_
*1362 _235_
*1363 _399_
*1364 _429_
*1365 _221_
*1366 vdd
*1367 _319_
*1368 _11_
*1369 _397_
*1370 _320_
*1371 _450_
*1372 _361_
*1373 _0_<7>
*1374 _375_
*1375 _413_
*1376 _422_
*1377 _459_
*1378 _418_
*1379 _329_
*1380 _69_
*1381 _457_
*1382 crc_out<2>
*1383 _142_
*1384 _0_<1>
*1385 _51_
*1386 _335_
*1387 _0_<24>
*1388 _340_
*1389 _539_<11>
*1390 _129_
*1391 _303_
*1392 crc_out<18>
*1393 _86_
*1394 _252_
*1395 _203_
*1396 _28_
*1397 _172_
*1398 _186_
*1399 _291_
*1400 _536_
*1401 _539_<6>
*1402 _159_
*1403 _126_
*1404 _134_
*1405 _531_
*1406 _0_<2>
*1407 _161_
*1408 _30_
*1409 _492_
*1410 _245_
*1411 _232_
*1412 _74_
*1413 _539_<20>
*1414 _501_
*1415 _191_
*1416 _275_
*1417 _516__bF$buf5
*1418 _516__bF$buf4
*1419 _516__bF$buf1
*1420 _516__bF$buf0
*1421 _516__bF$buf3
*1422 _103_
*1423 crc_out<29>
*1424 _113_
*1425 _539_<16>
*1426 _23_
*1427 _104_
*1428 _285_
*1429 _540_
*1430 _353_
*1431 _99_
*1432 _46_
*1433 _211_
*1434 _64_
*1435 _343_
*1436 _16_
*1437 _388_
*1438 _496_
*1439 _314_
*1440 _392_
*1441 _366_
*1442 _426_
*1443 _0_<14>
*1444 _431_
*1445 data_in<4>
*1446 _464_
*1447 crc_out<16>
*1448 _486_
*1449 crc_out<20>
*1450 _381_
*1451 data_in_3_bF$buf1
*1452 data_in_3_bF$buf0
*1453 data_in_3_bF$buf3
*1454 data_in_3_bF$buf2
*1455 _454_
*1456 _39_
*1457 _0_<6>
*1458 _371_
*1459 _446_
*1460 _324_
*1461 _0_<31>
*1462 _332_
*1463 _262_
*1464 _308_
*1465 _214_
*1466 _414_
*1467 _449_
*1468 _146_
*1469 _339_
*1470 _150_
*1471 _166_
*1472 crc_out<6>

*PORTS
*1 C
*2 C
*3 C
*4 C
*5 D
*6 C
*7 C
*8 D
*9 C
*10 D
*11 C
*12 C
*13 D
*14 C
*15 C
*16 C
*17 C
*18 C
*19 C
*20 C
*21 C
*22 D
*23 C
*24 C
*25 C
*26 C
*27 C
*28 C
*29 C
*30 C
*31 C
*32 D
*33 C
*34 C
*35 D
*36 C
*37 D
*38 I
*39 I
*40 C
*41 C
*42 C


*END

*D_NET *1142 1282.297695

*CONN
*I *527:Q O *D DFFSR
*I *557:A I *L 13.9855
*I *26:A I *L 13.9855
*I *563:A I *L 13.9855
*I *199:A I *L 13.9855
*N *1142:6 *C
*N *1142:7 *C
*N *1142:8 *C
*N *1142:9 *C
*N *1142:10 *C
*N *1142:11 *C
*N *1142:12 *C
*N *1142:13 *C
*N *1142:14 *C
*N *1142:15 *C

*CAP
1 *527:Q 0.0
2 *557:A 13.9855
3 *26:A 13.9855
4 *563:A 13.9855
5 *199:A 13.9855
6 *1142:6 95.48651
7 *1142:7 166.760685
8 *1142:8 176.024685
9 *1142:9 314.984685
10 *1142:10 91.989855
11 *1142:11 52.569855
12 *1142:12 13.149855
13 *1142:13 52.569855
14 *1142:14 52.569855
15 *1142:15 210.249855

*RES
1 *1142:11 *563:A 149.373333333
2 *563:A *1142:7 618.706666667
3 *1142:7 *199:A 130.701666667
4 *1142:7 *527:Q 64.04
5 *527:Q *1142:9 64.04
6 *1142:9 *1142:9 810.706666667
7 *1142:9 *1142:11 213.373333333
8 *557:A *1142:12 21.3733333333
9 *1142:12 *1142:9 1450.70666667
10 *26:A *1142:13 149.373333333

*END

*D_NET *1154 1288.667015

*CONN
*I *25:A I *L 12.5
*I *590:A I *L 29.6528
*I *191:B I *L 34.2715
*I *2:B I *L 34.2661
*I *676:B I *L 34.2715
*I *199:Y O *D BUFX4
*N *1154:7 *C
*N *1154:8 *C
*N *1154:9 *C
*N *1154:10 *C
*N *1154:11 *C
*N *1154:12 *C
*N *1154:13 *C
*N *1154:14 *C
*N *1154:15 *C
*N *1154:16 *C
*N *1154:17 *C
*N *1154:18 *C
*N *1154:19 *C

*CAP
1 *25:A 12.5
2 *590:A 29.6528
3 *191:B 34.2715
4 *2:B 34.2661
5 *676:B 34.2715
6 *199:Y 0.0
7 *1154:7 173.60651
8 *1154:8 14.63771
9 *1154:9 213.080685
10 *1154:10 27.800685
11 *1154:11 138.968685
12 *1154:12 13.149855
13 *1154:13 10.521855
14 *1154:14 328.509855
15 *1154:15 26.289855
16 *1154:16 13.149855
17 *1154:17 157.689855
18 *1154:18 13.149855
19 *1154:19 13.149855

*RES
1 *25:A *1154:7 21.3733333333
2 *25:A *1154:7 56.035
3 *25:A *199:Y 128.04
4 *1154:13 *1154:7 106.706666667
5 *1154:13 *1154:11 981.373333333
6 *191:B *1154:12 277.373333333
7 *1154:12 *676:B 106.706666667
8 *676:B *1154:13 21.3733333333
9 *1154:14 *2:B 277.373333333
10 *2:B *676:B 896.04
11 *1154:14 *590:A 18.7016666667
12 *590:A *1154:16 21.3733333333

*END

*D_NET *1153 1110.983495

*CONN
*I *776:A I *L 15.065
*I *414:B I *L 34.2715
*I *322:A I *L 12.9068
*I *644:A I *L 14.4193
*I *107:A I *L 12.5
*I *563:Y O *D BUFX4
*N *1153:7 *C
*N *1153:8 *C
*N *1153:9 *C
*N *1153:10 *C
*N *1153:11 *C
*N *1153:12 *C
*N *1153:13 *C
*N *1153:14 *C
*N *1153:15 *C
*N *1153:16 *C
*N *1153:17 *C

*CAP
1 *776:A 15.065
2 *414:B 34.2715
3 *322:A 12.9068
4 *644:A 14.4193
5 *107:A 12.5
6 *563:Y 0.0
7 *1153:7 37.064685
8 *1153:8 157.496685
9 *1153:9 277.928685
10 *1153:10 210.249855
11 *1153:11 26.289855
12 *1153:12 26.289855
13 *1153:13 13.149855
14 *1153:14 10.521855
15 *1153:15 78.849855
16 *1153:16 157.689855
17 *1153:17 26.289855

*RES
1 *1153:14 *1153:8 853.373333333
2 *1153:8 *1153:9 170.706666667
3 *1153:9 *563:Y 56.035
4 *1153:9 *1153:9 106.706666667
5 *1153:9 *107:A 746.706666667
6 *644:A *322:A 128.04
7 *644:A *1153:12 149.373333333
8 *644:A *1153:13 106.706666667
9 *1153:14 *776:A 149.373333333
10 *1153:15 *414:B 277.373333333
11 *414:B *107:A 1536.04

*END

*D_NET *1156 581.23172

*CONN
*I *283:A I *L 12.5
*I *662:A I *L 12.5
*I *134:A I *L 9.33171
*I *777:A I *L 15.065
*I *26:Y O *D BUFX4
*N *1156:6 *C
*N *1156:7 *C
*N *1156:8 *C
*N *1156:9 *C
*N *1156:10 *C
*N *1156:11 *C
*N *1156:12 *C

*CAP
1 *283:A 12.5
2 *662:A 12.5
3 *134:A 9.33171
4 *777:A 15.065
5 *26:Y 0.0
6 *1156:6 347.20651
7 *1156:7 14.63771
8 *1156:8 14.63771
9 *1156:9 27.800685
10 *1156:10 9.272685
11 *1156:11 91.989855
12 *1156:12 26.289855

*RES
1 *1156:6 *26:Y 21.3733333333
2 *26:Y *1156:7 64.04
3 *662:A *1156:6 130.701666667
4 *777:A *283:A 128.04
5 *1156:6 *1156:9 106.706666667
6 *1156:9 *134:A 106.706666667
7 *134:A *777:A 85.3733333333

*END

*D_NET *1155 687.96969

*CONN
*I *713:A I *L 12.5
*I *773:A I *L 9.32456
*I *542:C I *L 12.9138
*I *265:A I *L 12.5
*I *557:Y O *D BUFX4
*N *1155:6 *C
*N *1155:7 *C
*N *1155:8 *C
*N *1155:9 *C
*N *1155:10 *C
*N *1155:11 *C
*N *1155:12 *C
*N *1155:13 *C

*CAP
1 *713:A 12.5
2 *773:A 9.32456
3 *542:C 12.9138
4 *265:A 12.5
5 *557:Y 0.0
6 *1155:6 101.912685
7 *1155:7 361.304685
8 *1155:8 9.272685
9 *1155:9 26.289855
10 *1155:10 13.149855
11 *1155:11 65.709855
12 *1155:12 10.521855
13 *1155:13 52.569855

*RES
1 *773:A *557:Y 554.706666667
2 *1155:6 *265:A 21.3733333333
3 *265:A *1155:7 1474.70166667
4 *1155:7 *773:A 21.3733333333
5 *1155:8 *265:A 21.3733333333
6 *713:A *542:C 341.373333333
7 *713:A *1155:9 192.04

*END

*D_NET *1252 1236.81318

*CONN
*I *312:Q O *D DFFSR
*I *554:A I *L 13.9855
*I *558:A I *L 13.9855
*I *559:A I *L 13.9855
*I *556:A I *L 13.9855
*N *1252:6 *C
*N *1252:7 *C
*N *1252:8 *C
*N *1252:9 *C
*N *1252:10 *C
*N *1252:11 *C
*N *1252:12 *C
*N *1252:13 *C
*N *1252:14 *C

*CAP
1 *312:Q 0.0
2 *554:A 13.9855
3 *558:A 13.9855
4 *559:A 13.9855
5 *556:A 13.9855
6 *1252:6 26.04651
7 *1252:7 208.32651
8 *1252:8 72.21971
9 *1252:9 231.608685
10 *1252:10 55.592685
11 *1252:11 305.720685
12 *1252:12 18.536685
13 *1252:13 131.409855
14 *1252:14 131.409855

*RES
1 *558:A *1252:9 21.3733333333
2 *1252:8 *1252:7 1066.70666667
3 *1252:7 *556:A 18.7016666667
4 *1252:8 *1252:7 256.04
5 *1252:8 *1252:13 160.04
6 *1252:13 *1252:11 1408.04
7 *559:A *312:Q 1066.70666667
8 *554:A *1252:11 106.706666667
9 *1252:13 *1252:13 1280.04

*END

*D_NET *789 501.947955

*CONN
*I *379:A I *L 12.5
*I *518:B I *L 34.2715
*I *391:A I *L 12.5
*I *665:A I *L 29.6656
*I *778:B I *L 14.3643
*I *556:Y O *D BUFX4
*N *789:7 *C
*N *789:8 *C
*N *789:9 *C
*N *789:10 *C
*N *789:11 *C
*N *789:12 *C
*N *789:13 *C
*N *789:14 *C
*N *789:15 *C
*N *789:16 *C
*N *789:17 *C

*CAP
1 *379:A 12.5
2 *518:B 34.2715
3 *391:A 12.5
4 *665:A 29.6656
5 *778:B 14.3643
6 *556:Y 0.0
7 *789:7 27.800685
8 *789:8 83.384685
9 *789:9 64.856685
10 *789:10 37.064685
11 *789:11 27.800685
12 *789:12 13.149855
13 *789:13 13.149855
14 *789:14 26.289855
15 *789:15 52.569855
16 *789:16 26.289855
17 *789:17 26.289855

*RES
1 *789:7 *665:A 277.373333333
2 *665:A *556:Y 298.706666667
3 *789:7 *789:9 46.7016666667
4 *789:9 *556:Y 490.706666667
5 *379:A *789:10 21.3733333333
6 *789:10 *518:B 320.04
7 *518:B *789:9 21.3733333333
8 *778:B *789:11 64.04
9 *789:11 *789:10 170.706666667
10 *391:A *789:12 21.3733333333
11 *789:12 *789:11 128.04

*END

*D_NET *788 977.83766

*CONN
*I *637:B I *L 15.0643
*I *364:B I *L 34.2661
*I *615:A I *L 18.6567
*I *589:A I *L 29.6528
*I *640:A I *L 14.4193
*I *559:Y O *D BUFX4
*N *788:7 *C
*N *788:8 *C
*N *788:9 *C
*N *788:10 *C
*N *788:11 *C
*N *788:12 *C
*N *788:13 *C
*N *788:14 *C
*N *788:15 *C
*N *788:16 *C
*N *788:17 *C
*N *788:18 *C

*CAP
1 *637:B 15.0643
2 *364:B 34.2661
3 *615:A 18.6567
4 *589:A 29.6528
5 *640:A 14.4193
6 *559:Y 0.0
7 *788:7 29.26171
8 *788:8 14.63771
9 *788:9 55.592685
10 *788:10 27.800685
11 *788:11 176.024685
12 *788:12 39.429855
13 *788:13 131.409855
14 *788:14 10.521855
15 *788:15 183.969855
16 *788:16 52.569855
17 *788:17 65.709855
18 *788:18 78.849855

*RES
1 *788:7 *788:11 85.3733333333
2 *364:B *788:9 405.373333333
3 *788:9 *788:10 224.035
4 *788:10 *559:Y 64.04
5 *788:10 *788:11 42.7066666667
6 *788:10 *615:A 106.706666667
7 *637:B *788:12 21.3733333333
8 *788:12 *788:9 128.04
9 *640:A *788:9 106.706666667
10 *788:12 *788:12 810.706666667
11 *589:A *788:14 320.04
12 *788:14 *640:A 93.3683333333

*END

*D_NET *787 2066.82074

*CONN
*I *661:A I *L 12.5
*I *3:A I *L 29.6528
*I *525:B I *L 12.9035
*I *58:B I *L 12.9035
*I *453:A I *L 29.6528
*I *558:Y O *D BUFX4
*N *787:7 *C
*N *787:8 *C
*N *787:9 *C
*N *787:10 *C
*N *787:11 *C
*N *787:12 *C
*N *787:13 *C
*N *787:14 *C
*N *787:15 *C
*N *787:16 *C
*N *787:17 *C
*N *787:18 *C
*N *787:19 *C
*N *787:20 *C
*N *787:21 *C
*N *787:22 *C
*N *787:23 *C

*CAP
1 *661:A 12.5
2 *3:A 29.6528
3 *525:B 12.9035
4 *58:B 12.9035
5 *453:A 29.6528
6 *558:Y 0.0
7 *787:7 364.56651
8 *787:8 26.04651
9 *787:9 425.32651
10 *787:10 9.272685
11 *787:11 9.272685
12 *787:12 92.648685
13 *787:13 27.800685
14 *787:14 305.720685
15 *787:15 222.344685
16 *787:16 11.588685
17 *787:17 27.800685
18 *787:18 13.149855
19 *787:19 197.109855
20 *787:20 78.849855
21 *787:21 26.289855
22 *787:22 13.149855
23 *787:23 118.269855

*RES
1 *453:A *787:14 21.3733333333
2 *787:14 *787:14 42.7066666667
3 *787:14 *787:9 1960.035
4 *787:9 *787:9 42.7066666667
5 *787:9 *558:Y 106.706666667
6 *787:9 *661:A 106.706666667
7 *661:A *787:9 320.04
8 *787:9 *787:13 106.706666667
9 *787:13 *787:13 128.04
10 *787:13 *787:15 160.04
11 *787:15 *787:16 1408.04
12 *525:B *787:17 877.368333333
13 *58:B *787:17 21.3733333333
14 *787:15 *58:B 21.3733333333
15 *58:B *787:19 21.3733333333
16 *787:19 *525:B 149.373333333
17 *3:A *58:B 256.04

*END

*D_NET *786 557.892805

*CONN
*I *273:A I *L 9.33171
*I *594:B I *L 34.2661
*I *317:A I *L 29.6656
*I *677:B I *L 34.2715
*I *554:Y O *D BUFX4
*N *786:6 *C
*N *786:7 *C
*N *786:8 *C
*N *786:9 *C
*N *786:10 *C
*N *786:11 *C