*SPEF "1481-1998"
*DESIGN "SPM"
*DATE "Thu May  9 13:34:57 2019"
*VENDOR "Synopsys, Inc."
*PROGRAM "icc_shell"
*VERSION "H-2013.03-ICC"
*DESIGN_FLOW "PIN_CAP NONE"
*DIVIDER /
*DELIMITER :
*BUS_DELIMITER [ ]
*T_UNIT 1 NS
*C_UNIT 1 FF
*R_UNIT 1 OHM
*L_UNIT 1 HENRY

*NAME_MAP
*1 x[3]
*2 x[2]
*3 x[1]
*4 x[0]
*5 x[11]
*6 x[10]
*7 x[9]
*8 x[8]
*9 x[7]
*10 x[6]
*11 x[5]
*12 x[4]
*13 x[19]
*14 x[18]
*15 x[17]
*16 x[16]
*17 x[15]
*18 x[14]
*19 x[13]
*20 x[12]
*21 x[27]
*22 x[26]
*23 x[25]
*24 x[24]
*25 x[23]
*26 x[22]
*27 x[21]
*28 x[20]
*29 p
*30 y
*31 rst
*32 clk
*33 x[31]
*34 x[30]
*35 x[29]
*36 x[28]
*37 n473
*38 U120
*39 U444
*40 U43
*41 U45
*42 n474
*43 U366
*44 U196
*45 n475
*46 U25
*47 U140
*48 U213
*49 n476
*50 U97
*51 U159
*52 n477
*53 U64
*54 U210
*55 n478
*56 U52
*57 U226
*58 n479
*59 U58
*60 U230
*61 n480
*62 U118
*63 U231
*64 n481
*65 U96
*66 U232
*67 n482
*68 U130
*69 U236
*70 n162
*71 U452
*72 U450
*73 U371
*74 U85
*75 pp\[21\]
*76 U211
*77 genblk1\[21\]\.csa\/sum_reg
*78 genblk1\[20\]\.csa\/sc
*79 genblk1\[20\]\.csa\/sc_reg
*80 U100
*81 n295
*82 U451
*83 genblk1\[20\]\.csa\/N4
*84 genblk1\[20\]\.csa\/sum_reg
*85 n294
*86 U190
*87 U189
*88 n54
*89 n292
*90 U160
*91 tcmp\/z_reg
*92 tcmp\/N5
*93 tcmp\/s_reg
*94 n472
*95 U31
*96 U40
*97 U42
*98 n87
*99 U445
*100 U443
*101 U71
*102 pp\[7\]
*103 U121
*104 genblk1\[7\]\.csa\/sum_reg
*105 genblk1\[6\]\.csa\/sc
*106 genblk1\[6\]\.csa\/sc_reg
*107 U56
*108 n290
*109 genblk1\[6\]\.csa\/N4
*110 genblk1\[6\]\.csa\/sum_reg
*111 n289
*112 U355
*113 n40
*114 n212
*115 U442
*116 U440
*117 U270
*118 U76
*119 pp\[12\]
*120 U271
*121 genblk1\[12\]\.csa\/sum_reg
*122 genblk1\[11\]\.csa\/sc
*123 genblk1\[11\]\.csa\/sc_reg
*124 U62
*125 n288
*126 U441
*127 genblk1\[11\]\.csa\/N4
*128 genblk1\[11\]\.csa\/sum_reg
*129 n45
*130 n202
*131 U439
*132 U437
*133 U258
*134 U78
*135 pp\[14\]
*136 U259
*137 genblk1\[14\]\.csa\/sum_reg
*138 genblk1\[13\]\.csa\/sc
*139 genblk1\[13\]\.csa\/sc_reg
*140 U74
*141 n286
*142 U438
*143 genblk1\[13\]\.csa\/N4
*144 genblk1\[13\]\.csa\/sum_reg
*145 n285
*146 U357
*147 n47
*148 n187
*149 U436
*150 U434
*151 U240
*152 U81
*153 pp\[17\]
*154 U241
*155 genblk1\[17\]\.csa\/sum_reg
*156 genblk1\[16\]\.csa\/sc
*157 genblk1\[16\]\.csa\/sc_reg
*158 n284
*159 U435
*160 genblk1\[16\]\.csa\/N4
*161 genblk1\[16\]\.csa\/sum_reg
*162 n283
*163 U364
*164 n50
*165 n182
*166 U433
*167 U431
*168 U234
*169 U82
*170 pp\[18\]
*171 U235
*172 genblk1\[18\]\.csa\/sum_reg
*173 genblk1\[17\]\.csa\/sc
*174 genblk1\[17\]\.csa\/sc_reg
*175 U98
*176 n282
*177 U432
*178 genblk1\[17\]\.csa\/N4
*179 n281
*180 U358
*181 n51
*182 n172
*183 U430
*184 U428
*185 U222
*186 U84
*187 pp\[20\]
*188 U223
*189 genblk1\[19\]\.csa\/sc
*190 genblk1\[19\]\.csa\/sc_reg
*191 U60
*192 n280
*193 U429
*194 genblk1\[19\]\.csa\/N4
*195 genblk1\[19\]\.csa\/sum_reg
*196 n279
*197 U298
*198 n53
*199 n107
*200 U427
*201 U144
*202 U214
*203 U216
*204 pp\[31\]
*205 U145
*206 genblk1\[30\]\.csa\/sc
*207 genblk1\[30\]\.csa\/sc_reg
*208 U146
*209 genblk1\[30\]\.csa\/N4
*210 genblk1\[30\]\.csa\/sum_reg
*211 n177
*212 U424
*213 U422
*214 U228
*215 U83
*216 pp\[19\]
*217 U229
*218 genblk1\[18\]\.csa\/sc
*219 genblk1\[18\]\.csa\/sc_reg
*220 U99
*221 n276
*222 U423
*223 genblk1\[18\]\.csa\/N4
*224 n275
*225 U359
*226 n52
*227 n112
*228 U421
*229 U419
*230 U150
*231 U67
*232 pp\[3\]
*233 U151
*234 genblk1\[3\]\.csa\/sum_reg
*235 genblk1\[2\]\.csa\/sc
*236 genblk1\[2\]\.csa\/sc_reg
*237 U50
*238 n274
*239 U420
*240 genblk1\[2\]\.csa\/N4
*241 genblk1\[2\]\.csa\/sum_reg
*242 n273
*243 U365
*244 n36
*245 n217
*246 U418
*247 U416
*248 U276
*249 U75
*250 pp\[11\]
*251 U277
*252 genblk1\[10\]\.csa\/sc
*253 genblk1\[10\]\.csa\/sc_reg
*254 U61
*255 n272
*256 U417
*257 genblk1\[10\]\.csa\/N4
*258 genblk1\[10\]\.csa\/sum_reg
*259 n271
*260 U362
*261 n44
*262 n192
*263 U415
*264 U413
*265 U246
*266 U80
*267 pp\[16\]
*268 U247
*269 genblk1\[15\]\.csa\/sc
*270 genblk1\[15\]\.csa\/sc_reg
*271 U94
*272 n270
*273 U414
*274 genblk1\[15\]\.csa\/N4
*275 genblk1\[15\]\.csa\/sum_reg
*276 n269
*277 n49
*278 n197
*279 U412
*280 U410
*281 U252
*282 U79
*283 pp\[15\]
*284 U253
*285 genblk1\[14\]\.csa\/sc
*286 genblk1\[14\]\.csa\/sc_reg
*287 U92
*288 n268
*289 U411
*290 genblk1\[14\]\.csa\/N4
*291 n267
*292 U363
*293 n48
*294 n152
*295 U409
*296 U407
*297 U198
*298 U87
*299 pp\[23\]
*300 U199
*301 genblk1\[23\]\.csa\/sum_reg
*302 genblk1\[22\]\.csa\/sc
*303 genblk1\[22\]\.csa\/sc_reg
*304 U106
*305 n266
*306 U408
*307 genblk1\[22\]\.csa\/N4
*308 genblk1\[22\]\.csa\/sum_reg
*309 n56
*310 n137
*311 U406
*312 U404
*313 U180
*314 U90
*315 pp\[26\]
*316 U181
*317 genblk1\[26\]\.csa\/sum_reg
*318 genblk1\[25\]\.csa\/sc
*319 genblk1\[25\]\.csa\/sc_reg
*320 U124
*321 n264
*322 U405
*323 genblk1\[25\]\.csa\/N4
*324 genblk1\[25\]\.csa\/sum_reg
*325 n263
*326 U368
*327 n59
*328 n132
*329 U403
*330 U401
*331 U174
*332 U91
*333 pp\[27\]
*334 U175
*335 genblk1\[27\]\.csa\/sum_reg
*336 genblk1\[26\]\.csa\/sc
*337 genblk1\[26\]\.csa\/sc_reg
*338 n262
*339 U402
*340 genblk1\[26\]\.csa\/N4
*341 n261
*342 U369
*343 n60
*344 n117
*345 U400
*346 U156
*347 U164
*348 U162
*349 pp\[30\]
*350 U157
*351 genblk1\[29\]\.csa\/sc
*352 genblk1\[29\]\.csa\/sc_reg
*353 U142
*354 n465
*355 U219
*356 U220
*357 genblk1\[29\]\.csa\/N4
*358 genblk1\[29\]\.csa\/sum_reg
*359 n466
*360 U224
*361 n467
*362 U225
*363 n468
*364 U171
*365 n469
*366 U334
*367 U372
*368 U34
*369 U8
*370 n470
*371 U195
*372 n471
*373 U389
*374 U136
*375 n222
*376 U393
*377 U391
*378 U282
*379 U65
*380 pp\[1\]
*381 U283
*382 genblk1\[1\]\.csa\/sum_reg
*383 csa0\/sc
*384 csa0\/sc_reg
*385 U46
*386 n258
*387 U392
*388 csa0\/N4
*389 csa0\/sum_reg
*390 n34
*391 n97
*392 U390
*393 U388
*394 U69
*395 U27
*396 pp\[5\]
*397 U133
*398 genblk1\[5\]\.csa\/sum_reg
*399 genblk1\[4\]\.csa\/sc
*400 genblk1\[4\]\.csa\/sc_reg
*401 U53
*402 n256
*403 genblk1\[4\]\.csa\/N4
*404 genblk1\[4\]\.csa\/sum_reg
*405 n38
*406 n122
*407 U387
*408 U385
*409 U93
*410 U29
*411 pp\[29\]
*412 U163
*413 genblk1\[28\]\.csa\/sc
*414 genblk1\[28\]\.csa\/sc_reg
*415 U135
*416 n254
*417 U386
*418 genblk1\[28\]\.csa\/N4
*419 genblk1\[28\]\.csa\/sum_reg
*420 n253
*421 U158
*422 n62
*423 n167
*424 U384
*425 U333
*426 U66
*427 pp\[2\]
*428 U217
*429 genblk1\[1\]\.csa\/sc
*430 genblk1\[1\]\.csa\/sc_reg
*431 n127
*432 U383
*433 U183
*434 U165
*435 U166
*436 pp\[28\]
*437 U153
*438 genblk1\[27\]\.csa\/sc
*439 genblk1\[27\]\.csa\/sc_reg
*440 n142
*441 U382
*442 U347
*443 U186
*444 U89
*445 pp\[25\]
*446 U187
*447 genblk1\[24\]\.csa\/sc
*448 genblk1\[24\]\.csa\/sc_reg
*449 n147
*450 U381
*451 U345
*452 U192
*453 U88
*454 pp\[24\]
*455 U193
*456 genblk1\[24\]\.csa\/sum_reg
*457 genblk1\[23\]\.csa\/sc
*458 genblk1\[23\]\.csa\/sc_reg
*459 n157
*460 U380
*461 U343
*462 U204
*463 U86
*464 pp\[22\]
*465 U205
*466 genblk1\[21\]\.csa\/sc
*467 genblk1\[21\]\.csa\/sc_reg
*468 n207
*469 U379
*470 U341
*471 U264
*472 U77
*473 pp\[13\]
*474 U265
*475 genblk1\[12\]\.csa\/sc
*476 genblk1\[12\]\.csa\/sc_reg
*477 n72
*478 U378
*479 U102
*480 U201
*481 U200
*482 pp\[10\]
*483 U103
*484 genblk1\[9\]\.csa\/sc
*485 genblk1\[9\]\.csa\/sc_reg
*486 n77
*487 U377
*488 U108
*489 pp\[9\]
*490 U109
*491 genblk1\[9\]\.csa\/sum_reg
*492 genblk1\[8\]\.csa\/sc
*493 genblk1\[8\]\.csa\/sc_reg
*494 n82
*495 U376
*496 U337
*497 U114
*498 U72
*499 pp\[8\]
*500 U115
*501 genblk1\[8\]\.csa\/sum_reg
*502 genblk1\[7\]\.csa\/sc
*503 genblk1\[7\]\.csa\/sc_reg
*504 n92
*505 U375
*506 U351
*507 U126
*508 U70
*509 pp\[6\]
*510 U127
*511 genblk1\[5\]\.csa\/sc
*512 genblk1\[5\]\.csa\/sc_reg
*513 n102
*514 U374
*515 U335
*516 U138
*517 U68
*518 pp\[4\]
*519 U139
*520 genblk1\[3\]\.csa\/sc
*521 genblk1\[3\]\.csa\/sc_reg
*522 n459
*523 U28
*524 U212
*525 U149
*526 U178
*527 U125
*528 U239
*529 U215
*530 U119
*531 U143
*532 U37
*533 U35
*534 U203
*535 U245
*536 U155
*537 U275
*538 U263
*539 U221
*540 U197
*541 U107
*542 U209
*543 U269
*544 U179
*545 U101
*546 U185
*547 U251
*548 U137
*549 U233
*550 U191
*551 U131
*552 U173
*553 U227
*554 U161
*555 n166
*556 n460
*557 U117
*558 U10
*559 U48
*560 n161
*561 n461
*562 U20
*563 U177
*564 n462
*565 U22
*566 U346
*567 U172
*568 n463
*569 n464
*570 U218
*571 n18
*572 U299
*573 U18
*574 n444
*575 U182
*576 n445
*577 U152
*578 U184
*579 n446
*580 U24
*581 n447
*582 n448
*583 U23
*584 n449
*585 U32
*586 U344
*587 U19
*588 n450
*589 U17
*590 U208
*591 U194
*592 n451
*593 n452
*594 U202
*595 n453
*596 U206
*597 n20
*598 U36
*599 n22
*600 U300
*601 n454
*602 U41
*603 U39
*604 U13
*605 U207
*606 n455
*607 U49
*608 genblk1\[9\]\.csa\/N4
*609 U54
*610 n250
*611 U352
*612 genblk1\[5\]\.csa\/N4
*613 n249
*614 U294
*615 n39
*616 U134
*617 genblk1\[27\]\.csa\/N4
*618 n457
*619 n458
*620 U309
*621 U12
*622 n246
*623 U348
*624 genblk1\[24\]\.csa\/N4
*625 n245
*626 U188
*627 n58
*628 U113
*629 n244
*630 genblk1\[23\]\.csa\/N4
*631 n243
*632 n57
*633 U105
*634 n242
*635 genblk1\[21\]\.csa\/N4
*636 n241
*637 n55
*638 n240
*639 U342
*640 genblk1\[12\]\.csa\/N4
*641 n239
*642 U297
*643 n46
*644 U59
*645 genblk1\[8\]\.csa\/N4
*646 n236
*647 U338
*648 genblk1\[7\]\.csa\/N4
*649 n235
*650 U295
*651 n41
*652 n234
*653 U336
*654 genblk1\[3\]\.csa\/N4
*655 n233
*656 U292
*657 n37
*658 n232
*659 genblk1\[1\]\.csa\/N4
*660 n231
*661 U291
*662 n35
*663 n433
*664 U122
*665 n434
*666 U129
*667 n435
*668 n436
*669 U30
*670 n437
*671 U154
*672 n438
*673 U167
*674 n439
*675 U44
*676 U132
*677 n440
*678 U147
*679 n441
*680 U111
*681 U148
*682 n442
*683 U169
*684 n443
*685 U112
*686 U170
*687 n419
*688 U3
*689 n420
*690 n226
*691 U110
*692 n421
*693 U2
*694 U95
*695 n422
*696 n423
*697 U15
*698 n424
*699 U4
*700 n425
*701 U16
*702 n426
*703 U104
*704 n427
*705 n428
*706 n429
*707 n26
*708 U26
*709 n430
*710 U116
*711 n30
*712 U128
*713 n431
*714 n432
*715 n220
*716 n221
*717 n215
*718 n216
*719 genblk1\[10\]\.csa\/N5
*720 n210
*721 n211
*722 genblk1\[11\]\.csa\/N5
*723 n205
*724 n206
*725 genblk1\[12\]\.csa\/N5
*726 n200
*727 n201
*728 n195
*729 n196
*730 genblk1\[14\]\.csa\/N5
*731 n190
*732 n191
*733 genblk1\[15\]\.csa\/N5
*734 n185
*735 n186
*736 genblk1\[16\]\.csa\/N5
*737 n180
*738 n181
*739 genblk1\[17\]\.csa\/N5
*740 n175
*741 n176
*742 genblk1\[18\]\.csa\/N5
*743 n170
*744 n171
*745 genblk1\[19\]\.csa\/N5
*746 n165
*747 genblk1\[1\]\.csa\/N5
*748 n160
*749 genblk1\[20\]\.csa\/N5
*750 n155
*751 n156
*752 genblk1\[21\]\.csa\/N5
*753 n150
*754 n151
*755 genblk1\[22\]\.csa\/N5
*756 n145
*757 n146
*758 genblk1\[23\]\.csa\/N5
*759 n140
*760 n141
*761 genblk1\[24\]\.csa\/N5
*762 n135
*763 n136
*764 genblk1\[25\]\.csa\/N5
*765 n130
*766 n131
*767 genblk1\[26\]\.csa\/N5
*768 n417
*769 U5
*770 U73
*771 n418
*772 genblk1\[27\]\.csa\/N5
*773 n120
*774 n121
*775 genblk1\[28\]\.csa\/N5
*776 n115
*777 n116
*778 genblk1\[29\]\.csa\/N5
*779 n110
*780 n111
*781 genblk1\[2\]\.csa\/N5
*782 n105
*783 n106
*784 genblk1\[30\]\.csa\/N5
*785 n100
*786 n101
*787 genblk1\[3\]\.csa\/N5
*788 n95
*789 n96
*790 genblk1\[4\]\.csa\/N5
*791 n90
*792 n91
*793 genblk1\[5\]\.csa\/N5
*794 n85
*795 n86
*796 genblk1\[6\]\.csa\/N5
*797 n80
*798 n81
*799 genblk1\[7\]\.csa\/N5
*800 n75
*801 n76
*802 genblk1\[8\]\.csa\/N5
*803 n70
*804 n71
*805 genblk1\[9\]\.csa\/N5
*806 tcmp\/N6
*807 tcmp\/z
*808 n158
*809 U141
*810 U123
*811 U33
*812 U38
*813 n163
*814 U9
*815 n164
*816 n168
*817 n169
*818 n308
*819 n309
*820 n310
*821 n312
*822 n318
*823 n322
*824 U6
*825 n332
*826 U11
*827 n342
*828 n343
*829 n345
*830 n347
*831 n349
*832 n350
*833 n351
*834 n353
*835 n354
*836 n355
*837 n356
*838 n357
*839 n358
*840 n359
*841 n360
*842 n363
*843 U7
*844 n369
*845 U168
*846 n370
*847 U176
*848 n371
*849 n373
*850 U1
*851 n374
*852 U21
*853 n375
*854 U14
*855 n377
*856 n379
*857 n382
*858 n383
*859 n385
*860 n386
*861 n387
*862 n393
*863 n394
*864 n395
*865 n396
*866 n397
*867 n398
*868 n399
*869 n400
*870 n401
*871 U47
*872 n402
*873 n403
*874 n404
*875 U51
*876 n405
*877 n406
*878 n407
*879 n408
*880 U55
*881 n409
*882 n410
*883 U57
*884 n411
*885 n412
*886 n413
*887 n414
*888 n415
*889 U63
*890 n416

*PORTS
*1 I *L 0.0 *S 0.0 0.0
*2 I *L 0.0 *S 0.0 0.0
*3 I *L 0.0 *S 0.0 0.0
*4 I *L 0.0 *S 0.0 0.0
*5 I *L 0.0 *S 0.0 0.0
*6 I *L 0.0 *S 0.0 0.0
*7 I *L 0.0 *S 0.0 0.0
*8 I *L 0.0 *S 0.0 0.0
*9 I *L 0.0 *S 0.0 0.0
*10 I *L 0.0 *S 0.0 0.0
*11 I *L 0.0 *S 0.0 0.0
*12 I *L 0.0 *S 0.0 0.0
*13 I *L 0.0 *S 0.0 0.0
*14 I *L 0.0 *S 0.0 0.0
*15 I *L 0.0 *S 0.0 0.0
*16 I *L 0.0 *S 0.0 0.0
*17 I *L 0.0 *S 0.0 0.0
*18 I *L 0.0 *S 0.0 0.0
*19 I *L 0.0 *S 0.0 0.0
*20 I *L 0.0 *S 0.0 0.0
*21 I *L 0.0 *S 0.0 0.0
*22 I *L 0.0 *S 0.0 0.0
*23 I *L 0.0 *S 0.0 0.0
*24 I *L 0.0 *S 0.0 0.0
*25 I *L 0.0 *S 0.0 0.0
*26 I *L 0.0 *S 0.0 0.0
*27 I *L 0.0 *S 0.0 0.0
*28 I *L 0.0 *S 0.0 0.0
*29 O *L 0.0 *S 0.0 0.0
*30 I *L 0.0 *S 0.0 0.0
*31 I *L 0.0 *S 0.0 0.0
*32 I *L 0.0 *S 0.0 0.0
*33 I *L 0.0 *S 0.0 0.0
*34 I *L 0.0 *S 0.0 0.0
*35 I *L 0.0 *S 0.0 0.0
*36 I *L 0.0 *S 0.0 0.0

*D_NET *37 1.60496

*CONN
*I *38:A3 I *L 469.3559 *C 9.776 16.464
*I *39:A1 I *L 463.2442 *C 10.536 16.312
*I *40:A I *L 703.9216 *C 13.728 13.272
*I *41:Y O *L 0.0 *D NBUFFX2_RVT *C 13.728 4.608
*N *37:5 *C 10.536 16.312
*N *37:6 *C 10.536 16.16
*N *37:7 *C 10.536 16.16
*N *37:8 *C 10.08 16.16
*N *37:9 *C 10.08 16.16
*N *37:10 *C 13.728 13.272
*N *37:11 *C 9.776 16.464
*N *37:12 *C 13.728 13.728
*N *37:13 *C 13.728 13.728
*N *37:14 *C 10.08 13.728
*N *37:15 *C 10.08 13.728
*N *37:16 *C 13.728 4.608
*N *37:17 *C 9.776 16.16

*CAP
1 *38:A3 0.0
2 *39:A1 0.0
3 *40:A 0.0
4 *41:Y 0.0
5 *37:5 0.02178483
6 *37:6 0.02919964
7 *37:7 0.02178483
8 *37:8 0.02919964
9 *37:9 0.1708618
10 *37:10 0.4064459
11 *37:11 0.01501487
12 *37:12 0.159173
13 *37:13 0.02803267
14 *37:14 0.159173
15 *37:15 0.1541926
16 *37:16 0.3784132
17 *37:17 0.03168405

*RES
1 *37:5 *39:A1 1.0
2 *37:6 *37:7 0.5
3 *37:8 *37:9 0.5
4 *37:10 *40:A 1.0
5 *37:11 *38:A3 1.0
6 *37:12 *37:13 0.5
7 *37:14 *37:15 0.5
8 *37:16 *41:Y 1.0
9 *37:17 *37:9 0.5910715
10 *37:17 *37:11 0.5910715
11 *37:15 *37:9 4.441072
12 *37:7 *37:5 0.3160715
13 *37:16 *37:10 15.56964
14 *37:10 *37:13 0.9125001
15 *37:14 *37:12 6.710715
16 *37:8 *37:6 1.010714

*END

*D_NET *42 0.5564691

*CONN
*I *43:A2 I *L 459.8533 *C 31.999 16.616
*I *44:Y O *L 0.0 *D INVX1_RVT *C 35.312 14.64
*N *42:3 *C 35.312 14.64
*N *42:4 *C 35.312 15.856
*N *42:5 *C 35.312 15.856
*N *42:6 *C 32.12 15.856
*N *42:7 *C 32.12 15.856
*N *42:8 *C 32.12 16.616
*N *42:9 *C 32.12 16.616

*CAP
1 *43:A2 0.01124829
2 *44:Y 0.0
3 *42:3 0.06731454
4 *42:4 0.1554545
5 *42:5 0.06731454
6 *42:6 0.1554545
7 *42:7 0.04421723
8 *42:8 0.04421723
9 *42:9 0.01124829

*RES
1 *42:3 *44:Y 1.0
2 *42:4 *42:5 0.5
3 *42:6 *42:7 0.5
4 *43:A2 *42:9 0.1833334
5 *42:8 *42:9 1.0
6 *42:7 *42:8 1.553572
7 *42:3 *42:5 2.367858
8 *42:6 *42:4 5.89643

*END

*D_NET *45 0.9522363

*CONN
*I *46:A I *L 703.9216 *C 12.36 21.48
*I *47:A2 I *L 452.6196 *C 14.336 21.48
*I *48:Y O *L 0.0 *D INVX4_RVT *C 11.144 26.155
*N *45:4 *C 12.208 26.8
*N *45:5 *C 12.208 26.8
*N *45:6 *C 14.336 21.48
*N *45:7 *C 14.336 22.24
*N *45:8 *C 14.336 22.24
*N *45:9 *C 12.208 22.24
*N *45:10 *C 12.208 22.24
*N *45:11 *C 12.36 21.48
*N *45:12 *C 12.208 22.088
*N *45:13 *C 12.36 22.088

*CAP
1 *46:A 0.0
2 *47:A2 0.0
3 *48:Y 0.06693447
4 *45:4 0.2082994
5 *45:5 0.06693447
6 *45:6 0.05343467
7 *45:7 0.1042455
8 *45:8 0.05343467
9 *45:9 0.1042455
10 *45:10 0.2164044
11 *45:11 0.02688677
12 *45:12 0.01631737
13 *45:13 0.03509917

*RES
1 *45:4 *45:5 1.0
2 *45:6 *47:A2 1.0
3 *45:7 *45:8 0.5
4 *45:9 *45:10 0.5
5 *45:11 *46:A 1.0
6 *48:Y *45:5 1.904
7 *45:12 *45:10 0.3214286
8 *45:10 *45:4 8.241073
9 *45:12 *45:13 0.2714286
10 *45:11 *45:13 1.133929
11 *45:6 *45:8 1.553572
12 *45:9 *45:7 3.996429

*END

*D_NET *49 0.2410504

*CONN
*I *50:A4 I *L 517.718 *C 11.144 20.112
*I *51:A3 I *L 496.5746 *C 11.144 20.872
*I *46:Y O *L 0.0 *D INVX1_RVT *C 12.056 21.328
*N *49:4 *C 11.144 21.024
*N *49:5 *C 11.144 21.024
*N *49:6 *C 12.056 21.024
*N *49:7 *C 12.056 21.024
*N *49:8 *C 12.056 21.328
*N *49:9 *C 11.144 20.112
*N *49:10 *C 11.144 20.872

*CAP
1 *50:A4 0.0
2 *51:A3 0.0
3 *46:Y 0.0
4 *49:4 0.04869679
5 *49:5 0.010845
6 *49:6 0.04869679
7 *49:7 0.0234842
8 *49:8 0.0234842
9 *49:9 0.03749923
10 *49:10 0.04834423

*RES
1 *49:4 *49:5 0.5
2 *49:6 *49:7 0.5
3 *49:8 *46:Y 1.0
4 *49:9 *50:A4 1.0
5 *49:10 *51:A3 1.0
6 *49:10 *49:5 0.325
7 *49:9 *49:10 1.408929
8 *49:7 *49:8 0.7392857
9 *49:4 *49:6 1.825

*END

*D_NET *52 0.2052218

*CONN
*I *53:A I *L 481.3119 *C 44.43 28.17
*I *54:Y O *L 0.0 *D DELLN1X2_RVT *C 44.584 30.144
*N *52:3 *C 44.584 28.168
*N *52:4 *C 44.584 28.168
*N *52:5 *C 44.584 30.144

*CAP
1 *53:A 0.01360351
2 *54:Y 0.0
3 *52:3 0.08900739
4 *52:4 0.01360351
5 *52:5 0.08900739

*RES
1 *52:3 *52:4 1.0
2 *52:5 *54:Y 1.0
3 *53:A *52:4 0.325
4 *52:3 *52:5 3.725

*END

*D_NET *55 0.2076104

*CONN
*I *56:A I *L 481.3119 *C 31.512 4.76
*I *57:Y O *L 0.0 *D DELLN1X2_RVT *C 29.688 5.245
*N *55:3 *C 31.512 4.76
*N *55:4 *C 30.296 4.76
*N *55:5 *C 30.296 4.76
*N *55:6 *C 30.296 4.608

*CAP
1 *56:A 0.0
2 *57:Y 0.01625826
3 *55:3 0.06775757
4 *55:4 0.06775757
5 *55:5 0.01978939
6 *55:6 0.03604765

*RES
1 *55:3 *56:A 1.0
2 *55:4 *55:5 1.0
3 *57:Y *55:6 0.324
4 *55:6 *55:5 0.194
5 *55:4 *55:3 2.064286

*END

*D_NET *58 0.1142665

*CONN
*I *59:A I *L 481.3119 *C 7.344 4.76
*I *60:Y O *L 0.0 *D DELLN1X2_RVT *C 6.888 4.608
*N *58:3 *C 6.888 4.608
*N *58:4 *C 6.888 4.608
*N *58:5 *C 7.344 4.608
*N *58:6 *C 7.344 4.608
*N *58:7 *C 7.344 4.76

*CAP
1 *59:A 0.0
2 *60:Y 0.0
3 *58:3 0.01652671
4 *58:4 0.0425792
5 *58:5 0.02605249
6 *58:6 0.01455404
7 *58:7 0.01455404

*RES
1 *58:3 *60:Y 1.0
2 *58:4 *58:3 0.5
3 *58:5 *58:6 0.5
4 *58:7 *59:A 1.0
5 *58:6 *58:7 0.4450001
6 *58:4 *58:5 1.010714

*END

*D_NET *61 0.4053927

*CONN
*I *62:A I *L 481.3119 *C 11.6 41.544
*I *63:Y O *L 0.0 *D DELLN1X2_RVT *C 12.512 42.882
*N *61:3 *C 13.12 43.52
*N *61:4 *C 13.12 43.52
*N *61:5 *C 13.12 42.608
*N *61:6 *C 13.12 42.608
*N *61:7 *C 11.6 42.608
*N *61:8 *C 11.6 42.608
*N *61:9 *C 11.6 41.544

*CAP
1 *62:A 0.0
2 *63:Y 0.02511768
3 *61:3 0.04956223
4 *61:4 0.02511768
5 *61:5 0.07504126
6 *61:6 0.04956223
7 *61:7 0.07504126
8 *61:8 0.05297518
9 *61:9 0.05297518

*RES
1 *61:3 *61:4 1.0
2 *61:5 *61:6 0.5
3 *61:7 *61:8 0.5
4 *61:9 *62:A 1.0
5 *63:Y *61:4 0.4133334
6 *61:9 *61:8 2.096429
7 *61:6 *61:3 1.825
8 *61:7 *61:5 2.910715

*END

*D_NET *64 0.4018468

*CONN
*I *65:A I *L 481.3119 *C 42.76 9.928
*I *66:Y O *L 0.0 *D DELLN1X2_RVT *C 44.128 8.589
*N *64:3 *C 44.736 7.952
*N *64:4 *C 44.736 7.952
*N *64:5 *C 44.736 8.256
*N *64:6 *C 44.736 8.256
*N *64:7 *C 42.76 8.256
*N *64:8 *C 42.76 8.256
*N *64:9 *C 42.76 9.928

*CAP
1 *65:A 0.0
2 *66:Y 0.01242853
3 *64:3 0.02059887
4 *64:4 0.01242853
5 *64:5 0.09093916
6 *64:6 0.02059887
7 *64:7 0.09093916
8 *64:8 0.07695684
9 *64:9 0.07695684

*RES
1 *64:3 *64:4 1.0
2 *64:5 *64:6 0.5
3 *64:7 *64:8 0.5
4 *64:9 *65:A 1.0
5 *66:Y *64:4 0.2783334
6 *64:8 *64:9 3.182143
7 *64:3 *64:6 0.7392858
8 *64:7 *64:5 3.725

*END

*D_NET *67 0.4566063

*CONN
*I *68:A I *L 481.3119 *C 4.304 41.544
*I *69:Y O *L 0.0 *D DELLN1X2_RVT *C 6.888 43.52
*N *67:3 *C 4.304 41.544
*N *67:4 *C 4.304 42.912
*N *67:5 *C 4.304 42.912
*N *67:6 *C 6.888 42.912
*N *67:7 *C 6.888 42.912
*N *67:8 *C 6.888 43.52

*CAP
1 *68:A 0.0
2 *69:Y 0.0
3 *67:3 0.07105116
4 *67:4 0.1139479
5 *67:5 0.07105116
6 *67:6 0.1139479
7 *67:7 0.04330409
8 *67:8 0.04330409

*RES
1 *67:3 *68:A 1.0
2 *67:4 *67:5 0.5
3 *67:6 *67:7 0.5
4 *67:8 *69:Y 1.0
5 *67:3 *67:5 2.639286
6 *67:7 *67:8 1.282143
7 *67:4 *67:6 4.810715

*END

*D_NET *70 0.4503261

*CONN
*I *71:Y O *L 0.0 *D XOR2X1_RVT *C 25.888 26.648
*I *72:A3 I *L 572.8894 *C 24.064 26.344
*I *73:A2 I *L 487.3687 *C 24.368 28.32
*I *74:A I *L 703.9216 *C 25.432 26.648
*N *70:5 *C 24.064 26.344
*N *70:6 *C 24.368 28.32
*N *70:7 *C 24.368 26.496
*N *70:8 *C 24.368 26.496
*N *70:9 *C 25.432 26.496
*N *70:10 *C 25.432 26.496
*N *70:11 *C 25.432 26.648
*N *70:12 *C 25.888 26.496
*N *70:13 *C 25.888 26.496
*N *70:14 *C 25.888 26.648
*N *70:15 *C 24.064 26.496

*CAP
1 *71:Y 0.0
2 *72:A3 0.0
3 *73:A2 0.0
4 *74:A 0.0
5 *70:5 0.007666084
6 *70:6 0.0900372
7 *70:7 0.05331324
8 *70:8 0.1099232
9 *70:9 0.07806644
10 *70:10 0.01379701
11 *70:11 0.01379701
12 *70:12 0.02475321
13 *70:13 0.01571029
14 *70:14 0.01571029
15 *70:15 0.02755205

*RES
1 *70:5 *72:A3 1.0
2 *70:6 *73:A2 1.0
3 *70:7 *70:8 0.5
4 *70:9 *70:10 0.5
5 *70:11 *74:A 1.0
6 *70:12 *70:13 0.5
7 *70:14 *71:Y 1.0
8 *70:15 *70:8 0.8625001
9 *70:5 *70:15 0.3196429
10 *70:8 *70:6 3.355357
11 *70:10 *70:11 0.4450001
12 *70:13 *70:14 0.4450001
13 *70:7 *70:9 1.998214
14 *70:9 *70:12 0.9125001

*END

*D_NET *75 0.5516052

*CONN
*I *71:A2 I *L 969.562 *C 27.712 26.648
*I *76:A2 I *L 415.3116 *C 28.016 28.168
*I *77:Q O *L 0.0 *D DFFX1_RVT *C 27.712 31.816
*N *75:4 *C 27.712 26.648
*N *75:5 *C 28.016 28.168
*N *75:6 *C 27.712 31.816
*N *75:7 *C 27.864 26.648
*N *75:8 *C 27.712 27.712
*N *75:9 *C 27.864 27.712
*N *75:10 *C 28.016 27.712

*CAP
1 *71:A2 0.0
2 *76:A2 0.0
3 *77:Q 0.0
4 *75:4 0.01619497
5 *75:5 0.02533652
6 *75:6 0.1778916
7 *75:7 0.05431025
8 *75:8 0.1870237
9 *75:9 0.05637958
10 *75:10 0.03446868

*RES
1 *75:4 *71:A2 1.0
2 *75:5 *76:A2 1.0
3 *75:6 *77:Q 1.0
4 *75:4 *75:7 0.2678571
5 *75:8 *75:9 0.3214286
6 *75:9 *75:10 0.3214286
7 *75:8 *75:6 7.376786
8 *75:7 *75:9 1.8
9 *75:10 *75:5 0.7107144

*END

*D_NET *78 0.6761756

*CONN
*I *71:A1 I *L 890.9498 *C 27.408 26.8
*I *76:A1 I *L 463.2442 *C 28.165 28.432
*I *79:Q O *L 0.0 *D DFFX1_RVT *C 26.496 29.688
*N *78:4 *C 27.408 26.8
*N *78:5 *C 27.408 28.472
*N *78:6 *C 27.408 28.472
*N *78:7 *C 26.496 29.688
*N *78:8 *C 26.648 26.8
*N *78:9 *C 26.648 26.8
*N *78:10 *C 27.408 26.8
*N *78:11 *C 26.648 29.688

*CAP
1 *71:A1 0.0
2 *76:A1 0.05360326
3 *79:Q 0.0
4 *78:4 0.08252455
5 *78:5 0.08252455
6 *78:6 0.05360326
7 *78:7 0.01648804
8 *78:8 0.04129228
9 *78:9 0.1441797
10 *78:10 0.04129228
11 *78:11 0.1606677

*RES
1 *78:4 *71:A1 1.0
2 *78:5 *78:6 1.0
3 *78:7 *79:Q 1.0
4 *78:8 *78:9 0.5
5 *78:10 *78:4 0.5
6 *78:6 *76:A1 1.57
7 *78:7 *78:11 0.2678571
8 *78:9 *78:11 5.205358
9 *78:4 *78:5 3.182143
10 *78:8 *78:10 1.553572

*END

*D_NET *28 0.5748749

*CONN
*I *80:A I *L 387.5569 *C 36.224 41.544
*P *28 I *C 36.072 48.1
*N *28:3 *C 36.224 41.544
*N *28:4 *C 36.072 41.544

*CAP
1 *80:A 0.0
2 *28 0.2693119
3 *28:3 0.01812554
4 *28:4 0.2874374

*RES
1 *28:3 *80:A 1.0
2 *28:4 *28:3 0.2678571
3 *28:4 *28 11.60714

*END

*D_NET *81 0.2940194

*CONN
*I *82:Y O *L 0.0 *D NAND2X0_RVT *C 21.48 26.496
*I *72:A4 I *L 537.831 *C 23.76 26.496
*N *81:3 *C 21.48 26.496
*N *81:4 *C 21.48 26.496
*N *81:5 *C 23.76 26.496
*N *81:6 *C 23.76 26.496

*CAP
1 *82:Y 0.0
2 *72:A4 0.01456724
3 *81:3 0.01824591
4 *81:4 0.1324425
5 *81:5 0.1141966
6 *81:6 0.01456724

*RES
1 *81:3 *82:Y 1.0
2 *81:4 *81:3 0.5
3 *81:5 *81:6 0.5
4 *81:6 *72:A4 1.0
5 *81:4 *81:5 4.267858

*END

*D_NET *83 0.5319837

*CONN
*I *72:Y O *L 0.0 *D OAI22X1_RVT *C 24.824 26.952
*I *84:D I *L 508.1253 *C 27.104 30.144
*N *83:3 *C 24.824 26.952
*N *83:4 *C 24.824 29.536
*N *83:5 *C 24.824 29.536
*N *83:6 *C 27.104 29.536
*N *83:7 *C 27.104 29.536
*N *83:8 *C 27.104 30.144

*CAP
1 *72:Y 0.0
2 *84:D 0.0
3 *83:3 0.1285557
4 *83:4 0.09928133
5 *83:5 0.1285557
6 *83:6 0.09928133
7 *83:7 0.03815481
8 *83:8 0.03815481

*RES
1 *83:3 *72:Y 1.0
2 *83:4 *83:5 0.5
3 *83:6 *83:7 0.5
4 *83:8 *84:D 1.0
5 *83:3 *83:5 4.810715
6 *83:7 *83:8 1.282143
7 *83:4 *83:6 4.267858

*END

*D_NET *85 0.6164665

*CONN
*I *86:A I *L 703.9216 *C 21.025 24.826
*I *87:Y O *L 0.0 *D AO21X1_RVT *C 18.592 22.848
*N *85:3 *C 18.592 22.848
*N *85:4 *C 18.592 24.824
*N *85:5 *C 18.592 24.824

*CAP
1 *86:A 0.1724094
2 *87:Y 0.0
3 *85:3 0.1358238
4 *85:4 0.1358238
5 *85:5 0.1724094

*RES
1 *85:3 *87:Y 1.0
2 *85:4 *85:5 1.0
3 *85:5 *86:A 4.944
4 *85:3 *85:4 3.725001

*END

*D_NET *88 0.2172912

*CONN
*I *72:A1 I *L 491.3096 *C 23.518 26.648
*I *74:Y O *L 0.0 *D INVX1_RVT *C 25.128 26.8
*N *88:3 *C 23.518 26.648
*N *88:4 *C 23.518 26.8
*N *88:5 *C 23.518 26.8
*N *88:6 *C 25.128 26.8
*N *88:7 *C 25.128 26.8

*CAP
1 *72:A1 0.0
2 *74:Y 0.01420147
3 *88:3 0.01699851
4 *88:4 0.07744562
5 *88:5 0.01699851
6 *88:6 0.07744562
7 *88:7 0.01420147

*RES
1 *88:3 *72:A1 1.0
2 *88:4 *88:5 0.5
3 *88:6 *88:7 0.5
4 *88:7 *74:Y 1.0
5 *88:3 *88:5 0.4450001
6 *88:4 *88:6 3.071429

*END

*D_NET *89 0.4397571

*CONN
*I *90:A1 I *L 540.2302 *C 10.992 23.152
*I *91:QN O *L 0.0 *D DFFX1_RVT *C 7.952 21.936
*N *89:3 *C 10.992 23.152
*N *89:4 *C 10.992 23.152
*N *89:5 *C 7.952 23.152
*N *89:6 *C 7.952 23.152
*N *89:7 *C 7.952 21.936

*CAP
1 *90:A1 0.0
2 *91:QN 0.0
3 *89:3 0.0187322
4 *89:4 0.1598681
5 *89:5 0.1411359
6 *89:6 0.06001047
7 *89:7 0.06001047

*RES
1 *89:3 *90:A1 1.0
2 *89:4 *89:3 0.5
3 *89:5 *89:6 0.5
4 *89:7 *91:QN 1.0
5 *89:7 *89:6 2.367858
6 *89:5 *89:4 5.625

*END

*D_NET *92 0.6754135

*CONN
*I *93:D I *L 508.1253 *C 7.648 20.103
*I *51:Y O *L 0.0 *D AO22X1_RVT *C 10.688 21.011
*N *92:3 *C 7.648 19.96
*N *92:4 *C 7.648 19.96
*N *92:5 *C 7.648 19.504
*N *92:6 *C 7.648 19.504
*N *92:7 *C 10.232 19.504
*N *92:8 *C 10.232 19.504
*N *92:9 *C 10.232 21.936
*N *92:10 *C 10.232 21.936

*CAP
1 *93:D 0.01441688
2 *51:Y 0.03983244
3 *92:3 0.0355934
4 *92:4 0.01441688
5 *92:5 0.1212456
6 *92:6 0.0355934
7 *92:7 0.1212456
8 *92:8 0.1266185
9 *92:9 0.1266185
10 *92:10 0.03983244

*RES
1 *93:D *92:4 0.1833334
2 *92:3 *92:4 1.0
3 *92:5 *92:6 0.5
4 *92:7 *92:8 0.5
5 *92:9 *92:10 1.0
6 *92:10 *51:Y 0.9920001
7 *92:6 *92:3 1.010714
8 *92:8 *92:9 4.539286
9 *92:5 *92:7 4.810715

*END

*D_NET *94 2.33534

*CONN
*I *95:A2 I *L 459.8533 *C 16.008 21.48
*I *96:A I *L 703.9216 *C 23.912 16.616
*I *97:Y O *L 0.0 *D INVX1_RVT *C 25.888 7.952
*N *94:4 *C 16.008 21.48
*N *94:5 *C 16.008 21.024
*N *94:6 *C 16.008 21.024
*N *94:7 *C 23.0 21.024
*N *94:8 *C 23.0 21.024
*N *94:9 *C 23.0 16.768
*N *94:10 *C 23.0 16.768
*N *94:11 *C 25.736 16.768
*N *94:12 *C 25.736 16.768
*N *94:13 *C 25.888 7.952
*N *94:14 *C 23.912 16.616
*N *94:15 *C 23.912 16.768
*N *94:16 *C 23.912 16.768
*N *94:17 *C 25.736 10.08
*N *94:18 *C 25.888 10.08

*CAP
1 *95:A2 0.0
2 *96:A 0.0
3 *97:Y 0.0
4 *94:4 0.02908354
5 *94:5 0.3056048
6 *94:6 0.02908354
7 *94:7 0.3056048
8 *94:8 0.2236252
9 *94:9 0.04407286
10 *94:10 0.2236252
11 *94:11 0.08425295
12 *94:12 0.3604498
13 *94:13 0.09218342
14 *94:14 0.01648132
15 *94:15 0.1283258
16 *94:16 0.01648132
17 *94:17 0.3723662
18 *94:18 0.1040999

*RES
1 *94:4 *95:A2 1.0
2 *94:5 *94:6 0.5
3 *94:7 *94:8 0.5
4 *94:9 *94:10 0.5
5 *94:11 *94:12 0.5
6 *94:13 *97:Y 1.0
7 *94:14 *96:A 1.0
8 *94:15 *94:16 0.5
9 *94:6 *94:4 1.010714
10 *94:10 *94:8 7.796429
11 *94:14 *94:16 0.4450001
12 *94:17 *94:18 0.3714285
13 *94:17 *94:12 11.99107
14 *94:13 *94:18 3.848215
15 *94:5 *94:7 12.68214
16 *94:9 *94:15 1.726786
17 *94:15 *94:11 3.355357

*END

*D_NET *98 1.279547

*CONN
*I *99:Y O *L 0.0 *D XOR2X1_RVT *C 6.432 13.272
*I *100:A3 I *L 572.8894 *C 11.904 16.312
*I *38:A2 I *L 487.3687 *C 9.472 16.464
*I *101:A I *L 703.9216 *C 8.256 18.136
*N *98:5 *C 11.904 16.312
*N *98:6 *C 11.904 17.68
*N *98:7 *C 11.904 17.68
*N *98:8 *C 8.256 18.136
*N *98:9 *C 8.256 17.68
*N *98:10 *C 8.256 17.68
*N *98:11 *C 8.864 17.68
*N *98:12 *C 8.864 17.68
*N *98:13 *C 6.432 13.272
*N *98:14 *C 6.432 13.728
*N *98:15 *C 6.432 13.728
*N *98:16 *C 8.864 13.728
*N *98:17 *C 8.864 13.728
*N *98:18 *C 9.472 16.464
*N *98:19 *C 8.864 16.16
*N *98:20 *C 9.472 16.16

*CAP
1 *99:Y 0.0
2 *100:A3 0.0
3 *38:A2 0.0
4 *101:A 0.0
5 *98:5 0.06843712
6 *98:6 0.1262751
7 *98:7 0.06843712
8 *98:8 0.02880664
9 *98:9 0.02970019
10 *98:10 0.02880664
11 *98:11 0.1559753
12 *98:12 0.05735847
13 *98:13 0.02758943
14 *98:14 0.107952
15 *98:15 0.02758943
16 *98:16 0.107952
17 *98:17 0.1450706
18 *98:18 0.01986398
19 *98:19 0.2311491
20 *98:20 0.04858397

*RES
1 *98:5 *100:A3 1.0
2 *98:6 *98:7 0.5
3 *98:8 *101:A 1.0
4 *98:9 *98:10 0.5
5 *98:11 *98:12 0.5
6 *98:13 *99:Y 1.0
7 *98:14 *98:15 0.5
8 *98:16 *98:17 0.5
9 *98:18 *38:A2 1.0
10 *98:13 *98:15 1.010714
11 *98:10 *98:8 1.010714
12 *98:17 *98:19 4.441072
13 *98:19 *98:12 2.8125
14 *98:19 *98:20 1.085714
15 *98:20 *98:18 0.4392858
16 *98:5 *98:7 2.639286
17 *98:14 *98:16 4.539286
18 *98:9 *98:11 1.183929
19 *98:11 *98:6 5.526786

*END

*D_NET *102 0.4834998

*CONN
*I *99:A2 I *L 969.562 *C 4.608 13.272
*I *103:A2 I *L 415.3116 *C 7.042 13.312
*I *104:Q O *L 0.0 *D DFFX1_RVT *C 5.52 15.096
*N *102:4 *C 4.608 13.272
*N *102:5 *C 4.608 13.424
*N *102:6 *C 4.608 13.424
*N *102:7 *C 6.736 13.272
*N *102:8 *C 6.736 13.272
*N *102:9 *C 6.736 13.424
*N *102:10 *C 6.736 13.424
*N *102:11 *C 5.52 13.424
*N *102:12 *C 5.52 13.424
*N *102:13 *C 5.52 15.096

*CAP
1 *99:A2 0.0
2 *103:A2 0.02838162
3 *104:Q 0.0
4 *102:4 0.01614628
5 *102:5 0.04179516
6 *102:6 0.01614628
7 *102:7 0.02102626
8 *102:8 0.02838162
9 *102:9 0.05613004
10 *102:10 0.02102626
11 *102:11 0.0979252
12 *102:12 0.07827058
13 *102:13 0.07827058

*RES
1 *102:4 *99:A2 1.0
2 *102:5 *102:6 0.5
3 *102:7 *102:8 1.0
4 *102:9 *102:10 0.5
5 *102:11 *102:12 0.5
6 *102:13 *104:Q 1.0
7 *102:8 *103:A2 0.6680001
8 *102:4 *102:6 0.445
9 *102:12 *102:13 3.182143
10 *102:7 *102:10 0.445
11 *102:5 *102:11 1.726786
12 *102:11 *102:9 2.269643

*END

*D_NET *105 0.4297927

*CONN
*I *99:A1 I *L 890.9498 *C 4.912 13.424
*I *103:A1 I *L 463.2442 *C 7.192 12.968
*I *106:Q O *L 0.0 *D DFFX1_RVT *C 5.824 11.752
*N *105:4 *C 4.912 13.424
*N *105:5 *C 4.912 13.12
*N *105:6 *C 4.912 13.12
*N *105:7 *C 7.192 12.968
*N *105:8 *C 7.192 13.12
*N *105:9 *C 7.192 13.12
*N *105:10 *C 5.824 11.752
*N *105:11 *C 5.824 13.12
*N *105:12 *C 5.824 13.12

*CAP
1 *99:A1 0.0
2 *103:A1 0.0
3 *106:Q 0.0
4 *105:4 0.02135632
5 *105:5 0.04355109
6 *105:6 0.02135632
7 *105:7 0.02312095
8 *105:8 0.06091148
9 *105:9 0.02312095
10 *105:10 0.0659565
11 *105:11 0.1044626
12 *105:12 0.0659565

*RES
1 *105:4 *99:A1 1.0
2 *105:5 *105:6 0.5
3 *105:7 *103:A1 1.0
4 *105:8 *105:9 0.5
5 *105:10 *106:Q 1.0
6 *105:11 *105:12 0.5
7 *105:6 *105:4 0.7392858
8 *105:10 *105:12 2.639286
9 *105:7 *105:9 0.3160715
10 *105:5 *105:11 1.726786