*SPEF "IEEE 1481-2009"
*DESIGN "pic27ch"
*DATE "2019-05-12 04:58:17.886111"
*VENDOR "AUC_STUDENTS"
*PROGRAM "Def2Spef_Converter"
*VERSION "0.0"
*DESIGN_FLOW "PROJECT2_FLOW"
*DIVIDER /
*DELIMITER :
*BUS_DELIMITER <>
*T_UNIT 1 PS
*C_UNIT 1 FF
*R_UNIT 1 KOHM
*L_UNIT 1 UH

*NAME_MAP

*1 FILL_3_0_2
*2 FILL_3_0_1
*3 FILL_3_0_0
*4 FILL_5_0_0
*5 FILL_5_1_0
*6 FILL_5_1_1
*7 FILL_5_1_2
*8 NAND3X1_8
*9 NAND2X1_38
*10 INVX1_1
*11 OAI21X1_4
*12 NAND2X1_30
*13 NAND2X1_31
*14 NAND2X1_32
*15 NAND2X1_33
*16 NAND2X1_34
*17 NAND2X1_35
*18 NAND2X1_36
*19 NAND2X1_37
*20 FILL_4_1
*21 NAND2X1_12
*22 FILL_1_1_0
*23 FILL_1_1_1
*24 FILL_1_1_2
*25 NAND2X1_1
*26 NAND2X1_13
*27 NAND2X1_29
*28 NAND2X1_28
*29 NAND2X1_27
*30 NAND2X1_26
*31 NAND2X1_25
*32 NAND2X1_24
*33 NAND2X1_23
*34 NAND2X1_22
*35 NAND2X1_21
*36 NAND2X1_20
*37 NAND3X1_15
*38 NAND3X1_14
*39 NAND3X1_17
*40 NAND3X1_16
*41 NAND3X1_11
*42 NAND3X1_10
*43 NAND3X1_13
*44 NAND3X1_12
*45 NAND3X1_19
*46 NAND3X1_18
*47 FILL_3_1_2
*48 FILL_3_1_0
*49 FILL_3_1_1
*50 FILL_4_1_1
*51 FILL_6_1
*52 FILL_6_2
*53 FILL_2_1_2
*54 INVX1_2
*55 INVX1_3
*56 FILL_2_1_0
*57 INVX1_6
*58 INVX1_7
*59 INVX1_4
*60 INVX1_5
*61 INVX1_8
*62 INVX1_9
*63 NAND3X1_2
*64 FILL_1_0_1
*65 FILL_1_0_0
*66 FILL_1_0_2
*67 INVX1_17
*68 NAND2X1_8
*69 NAND2X1_9
*70 FILL_4_1_2
*71 NAND2X1_4
*72 NAND2X1_5
*73 NAND2X1_6
*74 NAND2X1_7
*75 INVX1_21
*76 NAND2X1_19
*77 NAND2X1_2
*78 NAND2X1_3
*79 AOI21X1_4
*80 AOI21X1_3
*81 AOI21X1_2
*82 AOI21X1_1
*83 AND2X2_12
*84 AND2X2_10
*85 AND2X2_11
*86 FILL_4_1_0
*87 FILL_2_0_2
*88 NAND3X1_9
*89 FILL_2_0_0
*90 FILL_2_0_1
*91 INVX1_28
*92 FILL_3_1
*93 FILL_1_2
*94 NAND3X1_5
*95 FILL_1_1
*96 NAND3X1_4
*97 INVX1_27
*98 INVX1_14
*99 INVX1_15
*100 INVX1_16
*101 NAND3X1_6
*102 INVX1_10
*103 INVX1_11
*104 INVX1_12
*105 INVX1_13
*106 NAND3X1_1
*107 INVX1_18
*108 INVX1_19
*109 AND2X2_9
*110 NOR2X1_1
*111 NOR2X1_3
*112 NOR2X1_2
*113 NOR2X1_5
*114 INVX1_23
*115 NOR2X1_7
*116 NOR2X1_6
*117 NAND3X1_20
*118 NOR2X1_8
*119 NAND3X1_22
*120 NAND3X1_23
*121 NAND3X1_24
*122 NOR2X1_4
*123 NAND2X1_16
*124 NAND2X1_17
*125 NAND2X1_14
*126 NAND2X1_15
*127 OAI21X1_3
*128 OAI21X1_2
*129 NAND2X1_10
*130 NAND2X1_11
*131 OAI21X1_9
*132 OAI21X1_8
*133 NAND3X1_21
*134 FILL_4_0_0
*135 FILL_4_0_1
*136 FILL_4_0_2
*137 BUFX2_7
*138 BUFX2_6
*139 BUFX2_5
*140 BUFX2_4
*141 BUFX2_3
*142 BUFX2_2
*143 BUFX2_1
*144 FILL_0_1_1
*145 FILL_0_1_0
*146 FILL_2_1_1
*147 FILL_0_1_2
*148 NAND2X1_18
*149 FILL_5_1
*150 OAI21X1_7
*151 OAI21X1_6
*152 OAI21X1_10
*153 FILL_5_0_1
*154 OAI21X1_5
*155 FILL_5_0_2
*156 OAI21X1_17
*157 OAI21X1_16
*158 OAI21X1_15
*159 OAI21X1_14
*160 OAI21X1_13
*161 OAI21X1_12
*162 OAI21X1_11
*163 AOI22X1_13
*164 INVX1_32
*165 INVX1_33
*166 INVX1_30
*167 INVX1_31
*168 AOI22X1_16
*169 AOI22X1_10
*170 AOI22X1_14
*171 AOI22X1_15
*172 AOI22X1_11
*173 OAI21X1_1
*174 INVX1_34
*175 OAI21X1_18
*176 OR2X2_1
*177 OAI22X1_1
*178 OAI22X1_2
*179 OAI22X1_3
*180 OAI22X1_4
*181 AND2X2_4
*182 AND2X2_5
*183 AND2X2_6
*184 AND2X2_7
*185 INVX1_29
*186 AND2X2_1
*187 AND2X2_2
*188 AND2X2_3
*189 INVX1_25
*190 INVX1_24
*191 NAND3X1_7
*192 INVX1_26
*193 AND2X2_8
*194 INVX1_20
*195 NAND3X1_3
*196 INVX1_22
*197 AOI22X1_8
*198 AOI22X1_9
*199 AOI22X1_12
*200 AOI22X1_1
*201 AOI22X1_2
*202 AOI22X1_3
*203 AOI22X1_4
*204 AOI22X1_5
*205 AOI22X1_6
*206 AOI22X1_7
*207 FILL_0_0_0
*208 FILL_0_0_1
*209 FILL_0_0_2
*210 out421
*211 _41_
*212 _10_
*213 _120_
*214 Ckt432.X1<6>
*215 _79_
*216 in47
*217 _94_
*218 in40
*219 in43
*220 _1_
*221 in60
*222 _49_
*223 _100_
*224 _125_
*225 _34_
*226 _107_
*227 _115_
*228 _130_
*229 _26_
*230 Ckt432.X2<4>
*231 Ckt432.I<7>
*232 _18_
*233 _8_
*234 out223
*235 _71_
*236 _55_
*237 _109_
*238 _66_
*239 _42_
*240 _17_
*241 _129_
*242 _93_
*243 in115
*244 _78_
*245 out432
*246 out431
*247 out430
*248 in30
*249 in34
*250 _32_
*251 in37
*252 _124_
*253 _90_
*254 _6_
*255 _116_
*256 _131_
*257 Ckt432.I<4>
*258 _37_
*259 Ckt432.X2<3>
*260 _9_
*261 _70_
*262 _27_
*263 _108_
*264 _67_
*265 _54_
*266 _77_
*267 _28_
*268 _80_
*269 _60_
*270 _102_
*271 in21
*272 in27
*273 _96_
*274 _3_
*275 in24
*276 _114_
*277 Ckt432.X1<8>
*278 _33_
*279 out329
*280 _20_
*281 Ckt432.X2<2>
*282 _68_
*283 _15_
*284 Ckt432.X1<7>
*285 _57_
*286 _12_
*287 _47_
*288 _81_
*289 _76_
*290 _11_
*291 _29_
*292 _61_
*293 Ckt432.X2<1>
*294 Ckt432.I<2>
*295 _48_
*296 in17
*297 in14
*298 _0_
*299 _101_
*300 in11
*301 _95_
*302 in95
*303 in92
*304 _126_
*305 _35_
*306 _123_
*307 in86
*308 _19_
*309 in99
*310 _56_
*311 _69_
*312 Ckt432.X1<0>
*313 _40_
*314 _122_
*315 _51_
*316 _62_
*317 Ckt432.I<8>
*318 _14_
*319 _38_
*320 Ckt432.X2<8>
*321 _86_
*322 Ckt432.I<3>
*323 Ckt432.X2<0>
*324 _59_
*325 _112_
*326 _105_
*327 in82
*328 _99_
*329 _22_
*330 _4_
*331 in89
*332 _45_
*333 in108
*334 _30_
*335 in102
*336 _75_
*337 _84_
*338 in105
*339 Ckt432.X1<1>
*340 _50_
*341 _74_
*342 _97_
*343 _63_
*344 _2_
*345 _87_
*346 _128_
*347 _103_
*348 _106_
*349 _58_
*350 _113_
*351 Ckt432.I<0>
*352 _23_
*353 Ckt432.X2<7>
*354 _121_
*355 _5_
*356 in79
*357 in112
*358 _98_
*359 in76
*360 in73
*361 out370
*362 Ckt432.X1<2>
*363 Ckt432.I<5>
*364 _89_
*365 _46_
*366 in50
*367 _13_
*368 _119_
*369 _92_
*370 _43_
*371 _64_
*372 Ckt432.X1<4>
*373 _16_
*374 _110_
*375 Ckt432.I<1>
*376 _21_
*377 Ckt432.X2<6>
*378 _117_
*379 in69
*380 in66
*381 in63
*382 _36_
*383 _24_
*384 _88_
*385 _53_
*386 _73_
*387 _104_
*388 Ckt432.X1<3>
*389 _39_
*390 in8
*391 _52_
*392 _65_
*393 in4
*394 Ckt432.X1<5>
*395 _91_
*396 in1
*397 _111_
*398 _85_
*399 _83_
*400 _7_
*401 Ckt432.X2<5>
*402 _127_
*403 in53
*404 _31_
*405 in56
*406 Ckt432.I<6>
*407 _82_
*408 _118_
*409 _25_
*410 _44_
*411 _72_

*PORTS
*1 O
*2 I
*3 I
*4 I
*5 I
*6 I
*7 I
*8 I
*9 I
*10 I
*11 I
*12 I
*13 O
*14 I
*15 I
*16 I
*17 O
*18 I
*19 I
*20 I
*21 I
*22 I
*23 O
*24 O
*25 I
*26 I
*27 O
*28 I
*29 I
*30 I
*31 I
*32 I
*33 I
*34 I
*35 I
*36 I
*37 I
*38 I
*39 I
*40 I
*41 I
*42 O
*43 I
*44 I
*45 I

*D_NET *298 2.19823391

*CONN
*I *168:A I *L 0.0173718
*I *171:A I *L 0.0173718
*I *170:A I *L 0.0173718
*I *163:A I *L 0.0173718
*I *199:A I *L 0.0173718
*I *172:A I *L 0.0173718
*I *169:A I *L 0.0173718
*I *198:A I *L 0.0173718
*I *197:A I *L 0.0173718
*I *106:Y O *D *106
*I *143:A I *L 0.00933171
*N *298:12 *C
*N *298:13 *C
*N *298:14 *C
*N *298:15 *C
*N *298:16 *C
*N *298:17 *C
*N *298:18 *C
*N *298:19 *C
*N *298:20 *C
*N *298:21 *C
*N *298:22 *C
*N *298:23 *C
*N *298:24 *C
*N *298:25 *C
*N *298:26 *C
*N *298:27 *C
*N *298:28 *C
*N *298:29 *C
*N *298:30 *C
*N *298:31 *C
*N *298:32 *C

*CAP
1 *168:A 0.0173718
2 *171:A 0.0173718
3 *170:A 0.0173718
4 *163:A 0.0173718
5 *199:A 0.0173718
6 *172:A 0.0173718
7 *169:A 0.0173718
8 *198:A 0.0173718
9 *197:A 0.0173718
10 *106:Y 0.0
11 *143:A 0.00933171
12 *298:12 0.15624
13 *298:13 0.0434
14 *298:14 0.14756
15 *298:15 0.19096
16 *298:16 0.04632
17 *298:17 0.194544
18 *298:18 0.027792
19 *298:19 0.129696
20 *298:20 0.120432
21 *298:21 0.41688
22 *298:22 0.009264
23 *298:23 0.01158
24 *298:24 0.064848
25 *298:25 0.02628
26 *298:26 0.02628
27 *298:27 0.01314
28 *298:28 0.09198
29 *298:29 0.02628
30 *298:30 0.03942
31 *298:31 0.23652
32 *298:32 0.01314

*RES

*END

*D_NET *234 0.067212

*CONN
*P *234 O
*I *143:Y O *D *143
*N *234:3 *C
*N *234:4 *C
*N *234:5 *C

*CAP
1 *234 0.067212
2 *143:Y 0.0
3 *234:3 0.027792
4 *234:4 0.01314
5 *234:5 0.02628

*RES

*END

*D_NET *220 2.86086591

*CONN
*I *168:C I *L 0.0182378
*I *171:C I *L 0.0182378
*I *170:C I *L 0.0182378
*I *163:C I *L 0.0182378
*I *199:C I *L 0.0182378
*I *172:C I *L 0.0182378
*I *169:C I *L 0.0182378
*I *198:C I *L 0.0182378
*I *197:C I *L 0.0182378
*I *101:Y O *D *101
*I *142:A I *L 0.00933171
*N *220:12 *C
*N *220:13 *C
*N *220:14 *C
*N *220:15 *C
*N *220:16 *C
*N *220:17 *C
*N *220:18 *C
*N *220:19 *C
*N *220:20 *C
*N *220:21 *C
*N *220:22 *C
*N *220:23 *C
*N *220:24 *C
*N *220:25 *C
*N *220:26 *C
*N *220:27 *C
*N *220:28 *C
*N *220:29 *C
*N *220:30 *C
*N *220:31 *C
*N *220:32 *C
*N *220:33 *C
*N *220:34 *C
*N *220:35 *C
*N *220:36 *C
*N *220:37 *C
*N *220:38 *C
*N *220:39 *C
*N *220:40 *C
*N *220:41 *C
*N *220:42 *C

*CAP
1 *168:C 0.0182378
2 *171:C 0.0182378
3 *170:C 0.0182378
4 *163:C 0.0182378
5 *199:C 0.0182378
6 *172:C 0.0182378
7 *169:C 0.0182378
8 *198:C 0.0182378
9 *197:C 0.0182378
10 *101:Y 0.0
11 *142:A 0.00933171
12 *220:12 0.16492
13 *220:13 0.014624
14 *220:14 0.019194
15 *220:15 0.064848
16 *220:16 0.009264
17 *220:17 0.009264
18 *220:18 0.027792
19 *220:19 0.064848
20 *220:20 0.13896
21 *220:21 0.01158
22 *220:22 0.37056
23 *220:23 0.018528
24 *220:24 0.01158
25 *220:25 0.194544
26 *220:26 0.027792
27 *220:27 0.240864
28 *220:28 0.03942
29 *220:29 0.07884
30 *220:30 0.05256
31 *220:31 0.15768
32 *220:32 0.10512
33 *220:33 0.02628
34 *220:34 0.01314
35 *220:35 0.01314
36 *220:36 0.21024
37 *220:37 0.10512
38 *220:38 0.02628
39 *220:39 0.18396
40 *220:40 0.010512
41 *220:41 0.23652
42 *220:42 0.03942

*RES

*END

*D_NET *279 0.0393543

*CONN
*P *279 O
*I *142:Y O *D *142
*N *279:3 *C

*CAP
1 *279 0.0393543
2 *142:Y 0.0
3 *279:3 0.0393543

*RES

*END

*D_NET *344 2.78834771

*CONN
*I *16:A I *L 0.0125
*I *15:A I *L 0.0125
*I *14:A I *L 0.0125
*I *13:A I *L 0.0125
*I *12:A I *L 0.0125
*I *27:A I *L 0.0125
*I *28:A I *L 0.0125
*I *29:A I *L 0.0125
*I *30:A I *L 0.0125
*I *41:Y O *D *41
*I *141:A I *L 0.00933171
*N *344:12 *C
*N *344:13 *C
*N *344:14 *C
*N *344:15 *C
*N *344:16 *C
*N *344:17 *C
*N *344:18 *C
*N *344:19 *C
*N *344:20 *C
*N *344:21 *C
*N *344:22 *C
*N *344:23 *C
*N *344:24 *C
*N *344:25 *C
*N *344:26 *C
*N *344:27 *C
*N *344:28 *C
*N *344:29 *C
*N *344:30 *C
*N *344:31 *C
*N *344:32 *C
*N *344:33 *C
*N *344:34 *C
*N *344:35 *C
*N *344:36 *C
*N *344:37 *C
*N *344:38 *C

*CAP
1 *16:A 0.0125
2 *15:A 0.0125
3 *14:A 0.0125
4 *13:A 0.0125
5 *12:A 0.0125
6 *27:A 0.0125
7 *28:A 0.0125
8 *29:A 0.0125
9 *30:A 0.0125
10 *41:Y 0.0
11 *141:A 0.00933171
12 *344:12 0.1302
13 *344:13 0.1736
14 *344:14 0.01828
15 *344:15 0.014624
16 *344:16 0.101904
17 *344:17 0.18528
18 *344:18 0.101904
19 *344:19 0.101904
20 *344:20 0.055584
21 *344:21 0.09264
22 *344:22 0.037056
23 *344:23 0.009264
24 *344:24 0.064848
25 *344:25 0.010512
26 *344:26 0.10512
27 *344:27 0.38106
28 *344:28 0.010512
29 *344:29 0.5256
30 *344:30 0.0657
31 *344:31 0.0657
32 *344:32 0.01314
33 *344:33 0.14454
34 *344:34 0.11826
35 *344:35 0.02628
36 *344:36 0.010512
37 *344:37 0.09198
38 *344:38 0.010512

*RES

*END

*D_NET *361 0.03942

*CONN
*P *361 O
*I *141:Y O *D *141
*N *361:3 *C

*CAP
1 *361 0.03942
2 *141:Y 0.0
3 *361:3 0.03942

*RES

*END

*D_NET *274 0.08099571

*CONN
*I *80:Y O *D *80
*I *140:A I *L 0.00933171
*N *274:3 *C
*N *274:4 *C

*CAP
1 *80:Y 0.0
2 *140:A 0.00933171
3 *274:3 0.043872
4 *274:4 0.027792

*RES

*END

*D_NET *210 0.0671463

*CONN
*P *210 O
*I *140:Y O *D *140
*N *210:3 *C
*N *210:4 *C
*N *210:5 *C

*CAP
1 *210 0.0671463
2 *140:Y 0.0
3 *210:3 0.027792
4 *210:4 0.0262143
5 *210:5 0.01314

*RES

*END

*D_NET *330 0.02395571

*CONN
*I *185:Y O *D *185
*I *139:A I *L 0.00933171
*N *330:3 *C

*CAP
1 *185:Y 0.0
2 *139:A 0.00933171
3 *330:3 0.014624

*RES

*END

*D_NET *247 0.0393543

*CONN
*P *247 O
*I *139:Y O *D *139
*N *247:3 *C

*CAP
1 *247 0.0393543
2 *139:Y 0.0
3 *247:3 0.0393543

*RES

*END

*D_NET *355 0.13247171

*CONN
*I *119:Y O *D *119
*I *138:A I *L 0.00933171
*N *355:3 *C
*N *355:4 *C
*N *355:5 *C
*N *355:6 *C

*CAP
1 *119:Y 0.0
2 *138:A 0.00933171
3 *355:3 0.01736
4 *355:4 0.027792
5 *355:5 0.064848
6 *355:6 0.01314

*RES

*END

*D_NET *246 0.038512

*CONN
*P *246 O
*I *138:Y O *D *138
*N *246:3 *C
*N *246:4 *C

*CAP
1 *246 0.038512
2 *138:Y 0.0
3 *246:3 0.029248
4 *246:4 0.009264

*RES

*END

*D_NET *254 0.31771971

*CONN
*I *121:Y O *D *121
*I *137:A I *L 0.00933171
*N *254:3 *C
*N *254:4 *C
*N *254:5 *C
*N *254:6 *C
*N *254:7 *C
*N *254:8 *C
*N *254:9 *C

*CAP
1 *121:Y 0.0
2 *137:A 0.00933171
3 *254:3 0.01828
4 *254:4 0.014624
5 *254:5 0.120432
6 *254:6 0.03942
7 *254:7 0.03942
8 *254:8 0.010512
9 *254:9 0.0657

*RES

*END

*D_NET *245 0.055584

*CONN
*P *245 O
*I *137:Y O *D *137
*N *245:3 *C

*CAP
1 *245 0.055584
2 *137:Y 0.0
3 *245:3 0.055584

*RES

*END

*D_NET *359 0.48466596

*CONN
*P *359 I
*I *169:B I *L 0.0179972
*I *10:A I *L 0.00932456
*N *359:4 *C
*N *359:5 *C
*N *359:6 *C
*N *359:7 *C
*N *359:8 *C
*N *359:9 *C

*CAP
1 *359 0.48466596
2 *169:B 0.0179972
3 *10:A 0.00932456
4 *359:4 0.029248
5 *359:5 0.01828
6 *359:6 0.01158
7 *359:7 0.1018461
8 *359:8 0.0
9 *359:9 0.2963901

*RES

*END

*D_NET *400 0.1389548

*CONN
*I *78:B I *L 0.0129035
*I *82:A I *L 0.0173593
*I *10:Y O *D *10
*N *400:4 *C
*N *400:5 *C
*N *400:6 *C

*CAP
1 *78:B 0.0129035
2 *82:A 0.0173593
3 *10:Y 0.0
4 *400:4 0.058496
5 *400:5 0.037056
6 *400:6 0.01314

*RES

*END

*D_NET *333 0.59225776

*CONN
*P *333 I
*I *44:A I *L 0.0158812
*I *109:A I *L 0.0129068
*I *96:A I *L 0.0158812
*I *25:A I *L 0.0125
*I *54:A I *L 0.00932456
*N *333:7 *C
*N *333:8 *C
*N *333:9 *C
*N *333:10 *C
*N *333:11 *C
*N *333:12 *C
*N *333:13 *C
*N *333:14 *C
*N *333:15 *C
*N *333:16 *C

*CAP
1 *333 0.59225776
2 *44:A 0.0158812
3 *109:A 0.0129068
4 *96:A 0.0158812
5 *25:A 0.0125
6 *54:A 0.00932456
7 *333:7 0.014624
8 *333:8 0.01828
9 *333:9 0.014624
10 *333:10 0.13896
11 *333:11 0.037056
12 *333:12 0.10512
13 *333:13 0.07884
14 *333:14 0.03942
15 *333:15 0.05256
16 *333:16 0.02628

*RES

*END

*D_NET *233 0.0474738

*CONN
*I *177:B I *L 0.0182258
*I *54:Y O *D *54
*N *233:3 *C

*CAP
1 *177:B 0.0182258
2 *54:Y 0.0
3 *233:3 0.029248

*RES

*END

*D_NET *302 0.64718626

*CONN
*P *302 I
*I *43:A I *L 0.0158812
*I *88:A I *L 0.0158812
*I *94:A I *L 0.0158812
*I *77:A I *L 0.0125
*I *55:A I *L 0.00932456
*N *302:7 *C
*N *302:8 *C
*N *302:9 *C
*N *302:10 *C
*N *302:11 *C
*N *302:12 *C
*N *302:13 *C
*N *302:14 *C
*N *302:15 *C

*CAP
1 *302 0.64718626
2 *43:A 0.0158812
3 *88:A 0.0158812
4 *94:A 0.0158812
5 *77:A 0.0125
6 *55:A 0.00932456
7 *302:7 0.055584
8 *302:8 0.083376
9 *302:9 0.0184701
10 *302:10 0.157488
11 *302:11 0.03942
12 *302:12 0.0657
13 *302:13 0.03942
14 *302:14 0.07884
15 *302:15 0.03942

*RES

*END

*D_NET *260 0.0371711

*CONN
*I *177:D I *L 0.0186431
*I *55:Y O *D *55
*N *260:3 *C

*CAP
1 *177:D 0.0186431
2 *55:Y 0.0
3 *260:3 0.018528

*RES

*END

*D_NET *335 0.32041926

*CONN
*P *335 I
*I *197:B I *L 0.0179972
*I *102:A I *L 0.00932456
*I *177:A I *L 0.0173495
*N *335:5 *C
*N *335:6 *C
*N *335:7 *C
*N *335:8 *C
*N *335:9 *C
*N *335:10 *C

*CAP
1 *335 0.32041926
2 *197:B 0.0179972
3 *102:A 0.00932456
4 *177:A 0.0173495
5 *335:5 0.09264
6 *335:6 0.04632
7 *335:7 0.018528
8 *335:8 0.01314
9 *335:9 0.02628
10 *335:10 0.07884

*RES

*END

*D_NET *331 0.23440606

*CONN
*P *331 I
*I *198:B I *L 0.0179972
*I *103:A I *L 0.00932456
*I *177:C I *L 0.0179862
*N *331:5 *C
*N *331:6 *C
*N *331:7 *C
*N *331:8 *C

*CAP
1 *331 0.23440606
2 *198:B 0.0179972
3 *103:A 0.00932456
4 *177:C 0.0179862
5 *331:5 0.037056
6 *331:6 0.083376
7 *331:7 0.0555261
8 *331:8 0.01314

*RES

*END

*D_NET *212 0.3017959

*CONN
*I *82:C I *L 0.0150799
*I *177:Y O *D *177
*N *212:3 *C
*N *212:4 *C
*N *212:5 *C

*CAP
1 *82:C 0.0150799
2 *177:Y 0.0
3 *212:3 0.037056
4 *212:4 0.23652
5 *212:5 0.01314

*RES

*END

*D_NET *327 0.5785406

*CONN
*P *327 I
*I *38:A I *L 0.0158812
*I *76:A I *L 0.0125
*I *130:A I *L 0.0125
*I *78:A I *L 0.0125
*I *82:B I *L 0.0179733
*N *327:7 *C
*N *327:8 *C
*N *327:9 *C
*N *327:10 *C
*N *327:11 *C
*N *327:12 *C
*N *327:13 *C
*N *327:14 *C
*N *327:15 *C
*N *327:16 *C
*N *327:17 *C
*N *327:18 *C
*N *327:19 *C

*CAP
1 *327 0.5785406
2 *38:A 0.0158812
3 *76:A 0.0125
4 *130:A 0.0125
5 *78:A 0.0125
6 *82:B 0.0179733
7 *327:7 0.029248
8 *327:8 0.064848
9 *327:9 0.009264
10 *327:10 0.01158
11 *327:11 0.064848
12 *327:12 0.04632
13 *327:13 0.0833181
14 *327:14 0.09264
15 *327:15 0.01314
16 *327:16 0.01314
17 *327:17 0.03942
18 *327:18 0.01314
19 *327:19 0.02628

*RES

*END

*D_NET *290 0.3171007

*CONN
*I *106:B I *L 0.0159247
*I *82:Y O *D *82
*N *290:3 *C
*N *290:4 *C

*CAP
1 *106:B 0.0159247
2 *82:Y 0.0
3 *290:3 0.222336
4 *290:4 0.07884

*RES

*END

*D_NET *251 0.19880176

*CONN
*P *251 I
*I *163:B I *L 0.0179972
*I *59:A I *L 0.00932456
*N *251:4 *C
*N *251:5 *C
*N *251:6 *C

*CAP
1 *251 0.19880176
2 *163:B 0.0179972
3 *59:A 0.00932456
4 *251:4 0.064848
5 *251:5 0.027792
6 *251:6 0.07884

*RES

*END

*D_NET *286 0.3337873

*CONN
*I *73:B I *L 0.0129035
*I *200:A I *L 0.0173718
*I *59:Y O *D *59
*N *286:4 *C
*N *286:5 *C
*N *286:6 *C

*CAP
1 *73:B 0.0129035
2 *200:A 0.0173718
3 *59:Y 0.0
4 *286:4 0.014624
5 *286:5 0.157488
6 *286:6 0.1314

*RES

*END

*D_NET *275 0.19492576

*CONN
*P *275 I
*I *170:B I *L 0.0179972
*I *60:A I *L 0.00932456
*N *275:4 *C
*N *275:5 *C
*N *275:6 *C
*N *275:7 *C

*CAP
1 *275 0.19492576
2 *170:B 0.0179972
3 *60:A 0.00932456
4 *275:4 0.037056
5 *275:5 0.064848
6 *275:6 0.01314
7 *275:7 0.05256

*RES

*END

*D_NET *367 0.3146373

*CONN
*I *74:B I *L 0.0129035
*I *200:C I *L 0.0182378
*I *60:Y O *D *60
*N *367:4 *C
*N *367:5 *C
*N *367:6 *C
*N *367:7 *C
*N *367:8 *C

*CAP
1 *74:B 0.0129035
2 *200:C 0.0182378
3 *60:Y 0.0
4 *367:4 0.014624
5 *367:5 0.043872
6 *367:6 0.01828
7 *367:7 0.058496
8 *367:8 0.148224

*RES

*END

*D_NET *219 1.0164092

*CONN
*P *219 I
*I *39:A I *L 0.0158812
*I *33:A I *L 0.0125
*I *188:A I *L 0.0129068
*I *73:A I *L 0.0125
*I *200:B I *L 0.0179972
*N *219:7 *C
*N *219:8 *C
*N *219:9 *C
*N *219:10 *C
*N *219:11 *C
*N *219:12 *C
*N *219:13 *C
*N *219:14 *C
*N *219:15 *C
*N *219:16 *C
*N *219:17 *C

*CAP
1 *219 1.0164092
2 *39:A 0.0158812
3 *33:A 0.0125
4 *188:A 0.0129068
5 *73:A 0.0125
6 *200:B 0.0179972
7 *219:7 0.014624
8 *219:8 0.018528
9 *219:9 0.222336
10 *219:10 0.166752
11 *219:11 0.101904
12 *219:12 0.05256
13 *219:13 0.11826
14 *219:14 0.01314
15 *219:15 0.10512
16 *219:16 0.11826
17 *219:17 0.01314

*RES

*END

*D_NET *248 0.7310255

*CONN
*P *248 I
*I *46:A I *L 0.0158812
*I *36:A I *L 0.0125
*I *187:A I *L 0.0129068
*I *74:A I *L 0.0125
*I *200:D I *L 0.0186552
*N *248:7 *C
*N *248:8 *C
*N *248:9 *C
*N *248:10 *C
*N *248:11 *C
*N *248:12 *C
*N *248:13 *C
*N *248:14 *C
*N *248:15 *C
*N *248:16 *C

*CAP
1 *248 0.7310255
2 *46:A 0.0158812
3 *36:A 0.0125
4 *187:A 0.0129068
5 *74:A 0.0125
6 *200:D 0.0186552
7 *248:7 0.07312
8 *248:8 0.018528
9 *248:9 0.111168
10 *248:10 0.101904
11 *248:11 0.064848
12 *248:12 0.02628
13 *248:13 0.09198
14 *248:14 0.0393543
15 *248:15 0.0657
16 *248:16 0.0657

*RES

*END

*D_NET *318 0.166236

*CONN
*I *195:A I *L 0.0158812
*I *186:A I *L 0.0129068
*I *200:Y O *D *200
*N *318:4 *C
*N *318:5 *C
*N *318:6 *C

*CAP
1 *195:A 0.0158812
2 *186:A 0.0129068
3 *200:Y 0.0
4 *318:4 0.074112
5 *318:5 0.037056
6 *318:6 0.02628

*RES

*END

*D_NET *381 0.20362176

*CONN
*P *381 I
*I *172:B I *L 0.0179972
*I *57:A I *L 0.00932456
*N *381:4 *C
*N *381:5 *C
*N *381:6 *C
*N *381:7 *C
*N *381:8 *C

*CAP
1 *381 0.20362176
2 *172:B 0.0179972
3 *57:A 0.00932456
4 *381:4 0.029248
5 *381:5 0.01828
6 *381:6 0.01314
7 *381:7 0.010512
8 *381:8 0.10512

*RES

*END

*D_NET *283 0.0858313

*CONN
*I *71:B I *L 0.0129035
*I *201:A I *L 0.0173718
*I *57:Y O *D *57
*N *283:4 *C
*N *283:5 *C
*N *283:6 *C

*CAP
1 *71:B 0.0129035
2 *201:A 0.0173718
3 *57:Y 0.0
4 *283:4 0.014624
5 *283:5 0.027792
6 *283:6 0.01314

*RES

*END

*D_NET *366 0.17996976

*CONN
*P *366 I
*I *199:B I *L 0.0179972
*I *58:A I *L 0.00932456
*N *366:4 *C
*N *366:5 *C
*N *366:6 *C

*CAP
1 *366 0.17996976
2 *199:B 0.0179972
3 *58:A 0.00932456
4 *366:4 0.029248
5 *366:5 0.01828
6 *366:6 0.10512

*RES

*END

*D_NET *373 0.2731573

*CONN
*I *72:B I *L 0.0129035
*I *201:C I *L 0.0182378
*I *58:Y O *D *58
*N *373:4 *C
*N *373:5 *C
*N *373:6 *C
*N *373:7 *C

*CAP
1 *72:B 0.0129035
2 *201:C 0.0182378
3 *58:Y 0.0
4 *373:4 0.01828
5 *373:5 0.058496
6 *373:6 0.13896
7 *373:7 0.02628

*RES

*END

*D_NET *379 0.5378424

*CONN
*P *379 I
*I *37:A I *L 0.0158812
*I *42:A I *L 0.0158812
*I *181:A I *L 0.0129068
*I *71:A I *L 0.0125
*I *201:B I *L 0.0179972
*N *379:7 *C
*N *379:8 *C
*N *379:9 *C
*N *379:10 *C
*N *379:11 *C
*N *379:12 *C
*N *379:13 *C
*N *379:14 *C
*N *379:15 *C

*CAP
1 *379 0.5378424
2 *37:A 0.0158812
3 *42:A 0.0158812
4 *181:A 0.0129068
5 *71:A 0.0125
6 *201:B 0.0179972
7 *379:7 0.029248
8 *379:8 0.018528
9 *379:9 0.027792
10 *379:10 0.064848
11 *379:11 0.04632
12 *379:12 0.10512
13 *379:13 0.11826
14 *379:14 0.01314
15 *379:15 0.03942

*RES

*END

*D_NET *405 0.6044472

*CONN
*P *405 I
*I *40:A I *L 0.0158812
*I *31:A I *L 0.0125
*I *182:A I *L 0.0129068
*I *72:A I *L 0.0125
*I *201:D I *L 0.0186552
*N *405:7 *C
*N *405:8 *C
*N *405:9 *C
*N *405:10 *C
*N *405:11 *C
*N *405:12 *C
*N *405:13 *C
*N *405:14 *C

*CAP
1 *405 0.6044472
2 *40:A 0.0158812
3 *31:A 0.0125
4 *182:A 0.0129068
5 *72:A 0.0125
6 *201:D 0.0186552
7 *405:7 0.043872
8 *405:8 0.014624
9 *405:9 0.037056
10 *405:10 0.027792
11 *405:11 0.18528
12 *405:12 0.10512
13 *405:13 0.09198
14 *405:14 0.02628

*RES

*END

*D_NET *240 0.4684066

*CONN
*I *195:B I *L 0.0159247
*I *186:B I *L 0.0125119
*I *201:Y O *D *201
*N *240:4 *C
*N *240:5 *C
*N *240:6 *C
*N *240:7 *C
*N *240:8 *C

*CAP
1 *195:B 0.0159247
2 *186:B 0.0125119
3 *201:Y 0.0
4 *240:4 0.32984
5 *240:5 0.008226
6 *240:6 0.009264
7 *240:7 0.055584
8 *240:8 0.037056

*RES

*END

*D_NET *232 0.1840966

*CONN
*I *106:C I *L 0.0164926
*I *186:Y O *D *186
*N *232:3 *C
*N *232:4 *C
*N *232:5 *C

*CAP
1 *106:C 0.0164926
2 *186:Y 0.0
3 *232:3 0.101904
4 *232:4 0.01314
5 *232:5 0.05256

*RES

*END

*D_NET *396 0.19843206

*CONN
*P *396 I
*I *168:B I *L 0.0179972
*I *61:A I *L 0.00932456
*N *396:4 *C
*N *396:5 *C
*N *396:6 *C
*N *396:7 *C
*N *396:8 *C

*CAP
1 *396 0.19843206
2 *168:B 0.0179972
3 *61:A 0.00932456
4 *396:4 0.029248
5 *396:5 0.01828
6 *396:6 0.018528
7 *396:7 0.0262143
8 *396:8 0.07884

*RES

*END

*D_NET *308 0.2764713

*CONN
*I *69:B I *L 0.0129035
*I *202:A I *L 0.0173718
*I *61:Y O *D *61
*N *308:4 *C
*N *308:5 *C
*N *308:6 *C
*N *308:7 *C

*CAP
1 *69:B 0.0129035
2 *202:A 0.0173718
3 *61:Y 0.0
4 *308:4 0.014624
5 *308:5 0.014624
6 *308:6 0.203808
7 *308:7 0.01314

*RES

*END

*D_NET *300 0.20349036

*CONN
*P *300 I
*I *171:B I *L 0.0179972
*I *62:A I *L 0.00932456
*N *300:4 *C
*N *300:5 *C
*N *300:6 *C
*N *300:7 *C
*N *300:8 *C

*CAP
1 *300 0.20349036
2 *171:B 0.0179972
3 *62:A 0.00932456
4 *300:4 0.029248
5 *300:5 0.01828
6 *300:6 0.0130743
7 *300:7 0.010512
8 *300:8 0.1050543

*RES

*END

*D_NET *280 0.1097673

*CONN
*I *68:B I *L 0.0129035
*I *202:C I *L 0.0182378
*I *62:Y O *D *62
*N *280:4 *C
*N *280:5 *C
*N *280:6 *C
*N *280:7 *C
*N *280:8 *C

*CAP
1 *68:B 0.0129035
2 *202:C 0.0182378
3 *62:Y 0.0
4 *280:4 0.014624
5 *280:5 0.014624
6 *280:6 0.00457
7 *280:7 0.018528
8 *280:8 0.02628

*RES

*END

*D_NET *393 0.5895343

*CONN
*P *393 I
*I *117:A I *L 0.0158812
*I *84:A I *L 0.0129068
*I *184:A I *L 0.0129068
*I *69:A I *L 0.0125
*I *202:B I *L 0.0179972
*N *393:7 *C
*N *393:8 *C
*N *393:9 *C
*N *393:10 *C
*N *393:11 *C
*N *393:12 *C
*N *393:13 *C
*N *393:14 *C
*N *393:15 *C

*CAP
1 *393 0.5895343
2 *117:A 0.0158812
3 *84:A 0.0129068
4 *184:A 0.0129068
5 *69:A 0.0125
6 *202:B 0.0179972
7 *393:7 0.014624
8 *393:8 0.014624
9 *393:9 0.148224
10 *393:10 0.09264
11 *393:11 0.037056
12 *393:12 0.0393543
13 *393:13 0.0657
14 *393:14 0.03942
15 *393:15 0.0657

*RES

*END

*D_NET *296 0.4643723

*CONN
*P *296 I
*I *45:A I *L 0.0158812
*I *85:A I *L 0.0129068
*I *193:A I *L 0.0129068
*I *68:A I *L 0.0125
*I *202:D I *L 0.0186552
*N *296:7 *C
*N *296:8 *C
*N *296:9 *C
*N *296:10 *C
*N *296:11 *C
*N *296:12 *C
*N *296:13 *C
*N *296:14 *C

*CAP
1 *296 0.4643723
2 *45:A 0.0158812
3 *85:A 0.0129068
4 *193:A 0.0129068
5 *68:A 0.0125
6 *202:D 0.0186552
7 *296:7 0.029248
8 *296:8 0.037056
9 *296:9 0.037056
10 *296:10 0.064848
11 *296:11 0.09198
12 *296:12 0.0262143
13 *296:13 0.07884
14 *296:14 0.02628

*RES

*END

*D_NET *376 0.5676778

*CONN
*I *195:C I *L 0.0164926
*I *106:A I *L 0.0158812
*I *202:Y O *D *202
*N *376:4 *C
*N *376:5 *C
*N *376:6 *C
*N *376:7 *C
*N *376:8 *C
*N *376:9 *C

*CAP
1 *195:C 0.0164926
2 *106:A 0.0158812
3 *202:Y 0.0
4 *376:4 0.014624
5 *376:5 0.074112
6 *376:6 0.157488
7 *376:7 0.02628
8 *376:8 0.18396
9 *376:9 0.07884

*RES

*END

*D_NET *329 0.0713995

*CONN
*I *25:B I *L 0.0129035
*I *102:Y O *D *102
*N *329:3 *C

*CAP
1 *25:B 0.0129035
2 *102:Y 0.0
3 *329:3 0.058496

*RES

*END

*D_NET *352 0.355117

*CONN
*I *173:C I *L 0.0129138
*I *63:A I *L 0.0158812
*I *25:Y O *D *25
*N *352:4 *C
*N *352:5 *C
*N *352:6 *C

*CAP
1 *173:C 0.0129138
2 *63:A 0.0158812
3 *25:Y 0.0
4 *352:4 0.002742
5 *352:5 0.2316
6 *352:6 0.09198

*RES

*END

*D_NET *383 0.0275275

*CONN
*I *77:B I *L 0.0129035
*I *103:Y O *D *103
*N *383:3 *C

*CAP
1 *77:B 0.0129035
2 *103:Y 0.0
3 *383:3 0.014624

*RES

*END

*D_NET *409 0.3771865

*CONN
*I *128:C I *L 0.0129138
*I *63:B I *L 0.0159247
*I *77:Y O *D *77
*N *409:4 *C
*N *409:5 *C
*N *409:6 *C
*N *409:7 *C
*N *409:8 *C

*CAP
1 *128:C 0.0129138
2 *63:B 0.0159247
3 *77:Y 0.0
4 *409:4 0.148224
5 *409:5 0.055584
6 *409:6 0.0657
7 *409:7 0.02628
8 *409:8 0.05256

*RES

*END

*D_NET *229 0.1521464

*CONN
*I *127:C I *L 0.0129138
*I *63:C I *L 0.0164926
*I *78:Y O *D *78
*N *229:4 *C
*N *229:5 *C
*N *229:6 *C
*N *229:7 *C

*CAP
1 *127:C 0.0129138
2 *63:C 0.0164926
3 *78:Y 0.0
4 *229:4 0.029248
5 *229:5 0.027792
6 *229:6 0.03942
7 *229:7 0.02628

*RES

*END

*D_NET *262 1.812088

*CONN
*I *131:A I *L 0.017346
*I *132:A I *L 0.017346
*I *150:A I *L 0.017346
*I *151:A I *L 0.017346
*I *154:A I *L 0.017346
*I *11:A I *L 0.017346
*I *127:A I *L 0.017346
*I *128:A I *L 0.017346
*I *173:A I *L 0.017346
*I *63:Y O *D *63
*N *262:11 *C
*N *262:12 *C
*N *262:13 *C
*N *262:14 *C
*N *262:15 *C
*N *262:16 *C
*N *262:17 *C
*N *262:18 *C
*N *262:19 *C
*N *262:20 *C
*N *262:21 *C
*N *262:22 *C
*N *262:23 *C
*N *262:24 *C
*N *262:25 *C
*N *262:26 *C
*N *262:27 *C

*CAP
1 *131:A 0.017346
2 *132:A 0.017346
3 *150:A 0.017346
4 *151:A 0.017346
5 *154:A 0.017346
6 *11:A 0.017346
7 *127:A 0.017346
8 *128:A 0.017346
9 *173:A 0.017346
10 *63:Y 0.0
11 *262:11 0.18228
12 *262:12 0.014624
13 *262:13 0.019194
14 *262:14 0.014624
15 *262:15 0.083376
16 *262:16 0.018528
17 *262:17 0.27792
18 *262:18 0.176016
19 *262:19 0.083376
20 *262:20 0.037056
21 *262:21 0.10512
22 *262:22 0.35478
23 *262:23 0.02628
24 *262:24 0.05256
25 *262:25 0.01314
26 *262:26 0.02628
27 *262:27 0.17082

*RES

*END

*D_NET *267 1.9201502

*CONN
*I *131:B I *L 0.0182038
*I *132:B I *L 0.0182038
*I *150:B I *L 0.0182038
*I *151:B I *L 0.0182038
*I *154:B I *L 0.0182038
*I *11:B I *L 0.0182038
*I *127:B I *L 0.0182038
*I *128:B I *L 0.0182038
*I *173:B I *L 0.0182038
*I *195:Y O *D *195
*N *267:11 *C
*N *267:12 *C
*N *267:13 *C
*N *267:14 *C
*N *267:15 *C
*N *267:16 *C
*N *267:17 *C
*N *267:18 *C
*N *267:19 *C
*N *267:20 *C
*N *267:21 *C
*N *267:22 *C
*N *267:23 *C
*N *267:24 *C
*N *267:25 *C
*N *267:26 *C
*N *267:27 *C
*N *267:28 *C
*N *267:29 *C
*N *267:30 *C

*CAP
1 *131:B 0.0182038
2 *132:B 0.0182038
3 *150:B 0.0182038
4 *151:B 0.0182038
5 *154:B 0.0182038
6 *11:B 0.0182038
7 *127:B 0.0182038
8 *128:B 0.0182038
9 *173:B 0.0182038
10 *195:Y 0.0
11 *267:11 0.18228
12 *267:12 0.014624
13 *267:13 0.194544
14 *267:14 0.04632
15 *267:15 0.027792
16 *267:16 0.037056
17 *267:17 0.101904
18 *267:18 0.259392
19 *267:19 0.027792
20 *267:20 0.07884
21 *267:21 0.01314
22 *267:22 0.02628
23 *267:23 0.14454
24 *267:24 0.0657
25 *267:25 0.03942
26 *267:26 0.31536
27 *267:27 0.02628
28 *267:28 0.010512
29 *267:29 0.1314
30 *267:30 0.01314

*RES

*END

*D_NET *312 0.1225326

*CONN
*I *109:B I *L 0.0125119
*I *96:B I *L 0.0159247
*I *173:Y O *D *173
*N *312:4 *C
*N *312:5 *C
*N *312:6 *C

*CAP
1 *109:B 0.0125119
2 *96:B 0.0159247
3 *173:Y 0.0
4 *312:4 0.029248
5 *312:5 0.037056
6 *312:6 0.027792

*RES

*END

*D_NET *339 0.2293253

*CONN
*I *88:C I *L 0.0164926
*I *94:B I *L 0.0159247
*I *128:Y O *D *128
*N *339:4 *C
*N *339:5 *C
*N *339:6 *C
*N *339:7 *C
*N *339:8 *C

*CAP
1 *88:C 0.0164926
2 *94:B 0.0159247
3 *128:Y 0.0
4 *339:4 0.101904
5 *339:5 0.055584
6 *339:6 0.01314
7 *339:7 0.01314
8 *339:8 0.01314

*RES

*END

*D_NET *362 0.143593

*CONN
*I *76:B I *L 0.0129035
*I *130:B I *L 0.0129035
*I *127:Y O *D *127
*N *362:4 *C
*N *362:5 *C
*N *362:6 *C
*N *362:7 *C

*CAP
1 *76:B 0.0129035
2 *130:B 0.0129035
3 *127:Y 0.0
4 *362:4 0.002742
5 *362:5 0.018528
6 *362:6 0.083376
7 *362:7 0.01314

*RES

*END

*D_NET *291 0.1697418

*CONN
*I *11:C I *L 0.0129138
*I *71:Y O *D *71
*N *291:3 *C
*N *291:4 *C
*N *291:5 *C

*CAP
1 *11:C 0.0129138
2 *71:Y 0.0
3 *291:3 0.064848
4 *291:4 0.03942
5 *291:5 0.05256

*RES

*END

*D_NET *388 0.2313005

*CONN
*I *42:C I *L 0.0164926
*I *181:B I *L 0.0125119
*I *11:Y O *D *11
*N *388:4 *C
*N *388:5 *C
*N *388:6 *C
*N *388:7 *C

*CAP
1 *42:C 0.0164926
2 *181:B 0.0125119
3 *11:Y 0.0
4 *388:4 0.13896
5 *388:5 0.037056
6 *388:6 0.01314
7 *388:7 0.01314

*RES

*END

*D_NET *334 0.1575678

*CONN
*I *154:C I *L 0.0129138
*I *72:Y O *D *72
*N *334:3 *C
*N *334:4 *C
*N *334:5 *C
*N *334:6 *C

*CAP
1 *154:C 0.0129138
2 *72:Y 0.0
3 *334:3 0.002742
4 *334:4 0.03942
5 *334:5 0.010512
6 *334:6 0.09198

*RES

*END

*D_NET *372 0.2177874

*CONN
*I *31:B I *L 0.0129035
*I *182:B I *L 0.0125119
*I *154:Y O *D *154
*N *372:4 *C
*N *372:5 *C
*N *372:6 *C
*N *372:7 *C
*N *372:8 *C

*CAP
1 *31:B 0.0129035
2 *182:B 0.0125119
3 *154:Y 0.0
4 *372:4 0.037056
5 *372:5 0.037056
6 *372:6 0.09198
7 *372:7 0.01314
8 *372:8 0.01314

*RES

*END

*D_NET *404 0.2821578

*CONN
*I *151:C I *L 0.0129138
*I *73:Y O *D *73
*N *404:3 *C
*N *404:4 *C
*N *404:5 *C

*CAP
1 *151:C 0.0129138
2 *73:Y 0.0
3 *404:3 0.166752
4 *404:4 0.010512
5 *404:5 0.09198

*RES

*END

*D_NET *394 0.1563194

*CONN
*I *33:B I *L 0.0129035
*I *188:B I *L 0.0125119
*I *151:Y O *D *151
*N *394:4 *C
*N *394:5 *C
*N *394:6 *C

*CAP
1 *33:B 0.0129035
2 *188:B 0.0125119
3 *151:Y 0.0
4 *394:4 0.01828
5 *394:5 0.029248
6 *394:6 0.083376

*RES

*END

*D_NET *250 0.1707078

*CONN
*I *150:C I *L 0.0129138
*I *74:Y O *D *74
*N *250:3 *C
*N *250:4 *C
*N *250:5 *C
*N *250:6 *C

*CAP
1 *150:C 0.0129138
2 *74:Y 0.0
3 *250:3 0.002742
4 *250:4 0.05256
5 *250:5 0.010512